((4-Fluorophenyl)(propan-2-yl)carbamoyl)methanesulfonicacid
  Mrv2222 01232613222D          

 18 18  0  0  0  0            999 V2000
   -0.7145    2.0625    0.0000 C   0  0  0  0  0  0  0  0  0  0  0  0
    0.0000    2.4750    0.0000 C   0  0  0  0  0  0  0  0  0  0  0  0
    0.0000    3.3000    0.0000 C   0  0  0  0  0  0  0  0  0  0  0  0
    0.7145    2.0625    0.0000 N   0  0  0  0  0  0  0  0  0  0  0  0
    0.7145    1.2375    0.0000 C   0  0  0  0  0  0  0  0  0  0  0  0
    1.4289    0.8250    0.0000 C   0  0  0  0  0  0  0  0  0  0  0  0
    1.4289    0.0000    0.0000 C   0  0  0  0  0  0  0  0  0  0  0  0
    0.7145   -0.4125    0.0000 C   0  0  0  0  0  0  0  0  0  0  0  0
    0.0000    0.0000    0.0000 C   0  0  0  0  0  0  0  0  0  0  0  0
    0.0000    0.8250    0.0000 C   0  0  0  0  0  0  0  0  0  0  0  0
    0.7145   -1.2375    0.0000 F   0  0  0  0  0  0  0  0  0  0  0  0
    1.4289    2.4750    0.0000 C   0  0  0  0  0  0  0  0  0  0  0  0
    1.4289    3.3000    0.0000 O   0  0  0  0  0  0  0  0  0  0  0  0
    2.1434    2.0625    0.0000 C   0  0  0  0  0  0  0  0  0  0  0  0
    2.8579    2.4750    0.0000 S   0  0  0  0  0  0  0  0  0  0  0  0
    3.5724    2.8875    0.0000 O   0  0  0  0  0  0  0  0  0  0  0  0
    3.2704    1.7605    0.0000 O   0  0  0  0  0  0  0  0  0  0  0  0
    2.4454    3.1895    0.0000 O   0  0  0  0  0  0  0  0  0  0  0  0
  1  2  1  0  0  0  0
  2  3  1  0  0  0  0
  2  4  1  0  0  0  0
  4  5  1  0  0  0  0
  5  6  2  0  0  0  0
  6  7  1  0  0  0  0
  7  8  2  0  0  0  0
  8  9  1  0  0  0  0
  9 10  2  0  0  0  0
  5 10  1  0  0  0  0
  8 11  1  0  0  0  0
  4 12  1  0  0  0  0
 12 13  2  0  0  0  0
 12 14  1  0  0  0  0
 14 15  1  0  0  0  0
 15 16  2  0  0  0  0
 15 17  2  0  0  0  0
 15 18  1  0  0  0  0
M  END
> <Molar mass [g/mol] [MProp:scalar:double]>
275.29

> <Exact mass [Da] [MProp:scalar:double]>
275.062757272

> <Formula>
C11H14FNO4S

> <Composition>
C (47.99%), H (5.13%), F (6.90%), N (5.09%), O (23.25%), S (11.65%)

> <Lipinski's rule of five [MProp:scalar:boolean]>
true

> <Atom count [MProp:scalar:integer]>
32

> <Heavy atom count [MProp:scalar:integer]>
18

> <Asymmetric atom count [MProp:scalar:integer]>
0

> <Rotatable bond count [MProp:scalar:integer]>
4

> <Ring count [MProp:scalar:integer]>
1

> <Aromatic ring count [MProp:scalar:integer]>
1

> <Hetero ring count [MProp:scalar:integer]>
0

> <FSP3 [MProp:scalar:double]>
0.36

> <Hydrogen bond donor count [MProp:scalar:integer]>
1

> <Hydrogen bond acceptor count [MProp:scalar:integer]>
4

> <Formal charge [MProp:scalar:integer]>
0

> <Topological polar surface area [A^2] [MProp:scalar:double]>
74.68

> <Polarizability [A^3] [MProp:scalar:double]>
25.18

> <Molar refractivity [cm^3/mol] [MProp:scalar:double]>
63.76

> <Van der Waals volume [A^3] [MProp:scalar:double]>
230.7

> <Minimum projection area [A^2] [MProp:scalar:double]>
48.04

> <Maximum projection area [A^2] [MProp:scalar:double]>
64.26

> <Minimum projection radius [A] [MProp:scalar:double]>
5.06

> <Maximum projection radius [A] [MProp:scalar:double]>
5.59

> <Van der Waals surface area [A^2] [MProp:scalar:double]>
388.64

> <Solvent accessible surface area [A^2] [MProp:scalar:double]>
421.14

> <Strongest acidic pKa [MProp:scalar:double]>
-1.38

> <Strongest basic pKa>
N/A

> <Isoelectric point>
N/A

> <Intrinsic solubility [logS] [MProp:scalar:double]>
-2.12

> <Solubility category>
High

> <logP [MProp:scalar:double]>
1.19

> <logD_PH0 [MProp:scalar:double]>
-0.17

> <logD_PH1 [MProp:scalar:double]>
-0.89

> <logD_PH2 [MProp:scalar:double]>
-1.15

> <logD_PH3 [MProp:scalar:double]>
-1.18

> <logD_PH4 [MProp:scalar:double]>
-1.19

> <logD_PH5 [MProp:scalar:double]>
-1.19

> <logD_PH6 [MProp:scalar:double]>
-1.19

> <logD_PH7 [MProp:scalar:double]>
-1.19

> <logD_PH8 [MProp:scalar:double]>
-1.19

> <logD_PH9 [MProp:scalar:double]>
-1.19

> <logD_PH10 [MProp:scalar:double]>
-1.19

> <logD_PH11 [MProp:scalar:double]>
-1.19

> <logD_PH12 [MProp:scalar:double]>
-1.2

> <logD_PH13 [MProp:scalar:double]>
-1.26

> <logD_PH14 [MProp:scalar:double]>
-1.63

> <HLB [MProp:scalar:double]>
14.01

> <IUPAC name>
[(4-fluorophenyl)(propan-2-yl)carbamoyl]methanesulfonic acid

> <SMILES>
CC(C)N(C(=O)CS(O)(=O)=O)C1=CC=C(F)C=C1

> <InChI>
InChI=1S/C11H14FNO4S/c1-8(2)13(11(14)7-18(15,16)17)10-5-3-9(12)4-6-10/h3-6,8H,7H2,1-2H3,(H,15,16,17)

> <InChIKey>
SZCMHDLOUVZYST-UHFFFAOYSA-N

> <Traditional name>
flufenacet esa

> <Common names>
flufenacet esa

> <CAS Registry Numbers(R)>
201668-32-8

$$$$
(2,4-Dichlorophenoxy)Aceticacid
  Mrv2222 01232613222D          

 13 13  0  0  0  0            999 V2000
    1.4289    0.8250    0.0000 C    0  0  0  0  0  0  0  0  0  0  0  0
    1.4289    0.0000    0.0000 C    0  0  0  0  0  0  0  0  0  0  0  0
    0.7145   -0.4125    0.0000 C    0  0  0  0  0  0  0  0  0  0  0  0
    0.0000    0.0000    0.0000 C    0  0  0  0  0  0  0  0  0  0  0  0
    0.0000    0.8250    0.0000 C    0  0  0  0  0  0  0  0  0  0  0  0
    0.7145    1.2375    0.0000 C    0  0  0  0  0  0  0  0  0  0  0  0
    0.7145    2.0625    0.0000 Cl   0  0  0  0  0  0  0  0  0  0  0  0
   -0.7145   -0.4125    0.0000 Cl   0  0  0  0  0  0  0  0  0  0  0  0
    0.7145   -1.2375    0.0000 O    0  0  0  0  0  0  0  0  0  0  0  0
    1.4289   -1.6500    0.0000 C    0  0  0  0  0  0  0  0  0  0  0  0
    1.4289   -2.4750    0.0000 C    0  0  0  0  0  0  0  0  0  0  0  0
    2.1434   -2.8875    0.0000 O    0  0  0  0  0  0  0  0  0  0  0  0
    0.7145   -2.8875    0.0000 O    0  0  0  0  0  0  0  0  0  0  0  0
  1  2  2  0  0  0  0
  2  3  1  0  0  0  0
  3  4  2  0  0  0  0
  4  5  1  0  0  0  0
  5  6  2  0  0  0  0
  1  6  1  0  0  0  0
  6  7  1  0  0  0  0
  4  8  1  0  0  0  0
  3  9  1  0  0  0  0
  9 10  1  0  0  0  0
 10 11  1  0  0  0  0
 11 12  2  0  0  0  0
 11 13  1  0  0  0  0
M  END
> <Molar mass [g/mol] [MProp:scalar:double]>
221.03

> <Exact mass [Da] [MProp:scalar:double]>
219.9693995

> <Formula>
C8H6Cl2O3

> <Composition>
C (43.47%), H (2.74%), Cl (32.08%), O (21.71%)

> <Lipinski's rule of five [MProp:scalar:boolean]>
true

> <Atom count [MProp:scalar:integer]>
19

> <Heavy atom count [MProp:scalar:integer]>
13

> <Asymmetric atom count [MProp:scalar:integer]>
0

> <Rotatable bond count [MProp:scalar:integer]>
3

> <Ring count [MProp:scalar:integer]>
1

> <Aromatic ring count [MProp:scalar:integer]>
1

> <Hetero ring count [MProp:scalar:integer]>
0

> <FSP3 [MProp:scalar:double]>
0.12

> <Hydrogen bond donor count [MProp:scalar:integer]>
1

> <Hydrogen bond acceptor count [MProp:scalar:integer]>
3

> <Formal charge [MProp:scalar:integer]>
0

> <Topological polar surface area [A^2] [MProp:scalar:double]>
46.53

> <Polarizability [A^3] [MProp:scalar:double]>
19.13

> <Molar refractivity [cm^3/mol] [MProp:scalar:double]>
48.22

> <Van der Waals volume [A^3] [MProp:scalar:double]>
163.67

> <Minimum projection area [A^2] [MProp:scalar:double]>
27.79

> <Maximum projection area [A^2] [MProp:scalar:double]>
61.26

> <Minimum projection radius [A] [MProp:scalar:double]>
3.84

> <Maximum projection radius [A] [MProp:scalar:double]>
6.25

> <Van der Waals surface area [A^2] [MProp:scalar:double]>
253.88

> <Solvent accessible surface area [A^2] [MProp:scalar:double]>
370.59

> <Strongest acidic pKa [MProp:scalar:double]>
2.81

> <Strongest basic pKa>
N/A

> <Isoelectric point>
N/A

> <Intrinsic solubility [logS] [MProp:scalar:double]>
-3.04

> <Solubility category>
High

> <logP [MProp:scalar:double]>
2.5

> <logD_PH0 [MProp:scalar:double]>
2.5

> <logD_PH1 [MProp:scalar:double]>
2.49

> <logD_PH2 [MProp:scalar:double]>
2.44

> <logD_PH3 [MProp:scalar:double]>
2.1

> <logD_PH4 [MProp:scalar:double]>
1.29

> <logD_PH5 [MProp:scalar:double]>
0.33

> <logD_PH6 [MProp:scalar:double]>
-0.52

> <logD_PH7 [MProp:scalar:double]>
-0.94

> <logD_PH8 [MProp:scalar:double]>
-1.02

> <logD_PH9 [MProp:scalar:double]>
-1.03

> <logD_PH10 [MProp:scalar:double]>
-1.03

> <logD_PH11 [MProp:scalar:double]>
-1.03

> <logD_PH12 [MProp:scalar:double]>
-1.03

> <logD_PH13 [MProp:scalar:double]>
-1.03

> <logD_PH14 [MProp:scalar:double]>
-1.03

> <HLB [MProp:scalar:double]>
8.97

> <IUPAC name>
2-(2,4-dichlorophenoxy)acetic acid

> <SMILES>
OC(=O)COC1=C(Cl)C=C(Cl)C=C1

> <InChI>
InChI=1S/C8H6Cl2O3/c9-5-1-2-7(6(10)3-5)13-4-8(11)12/h1-3H,4H2,(H,11,12)

> <InChIKey>
OVSKIKFHRZPJSS-UHFFFAOYSA-N

> <Traditional name>
rhodia

> <Common names>
2,4-D lithium; 2,4-dichlorphenoxyessigsaeure; C8H6cl2O3; R-H weed rhap 20; acme LV 4; acme LV 6; agricorn D; agrotect; amoxone; barrage; brush-rhap; caswell no. 315; ccris 949; chipco turf herbicide "D"; chloroxone; citrus fix; crop rider; croprider; de-pester ded-weed LV-2; debroussaillant 600; ded-weed LV-69; deherban; dichlorophenoxyacetic acid; dicopur; dormon; dormone; emulsamine; emulsamine BK; emulsamine E-3; envert DT; epa pesticide chemical code 030001; esteron 44 weed killer; esteron 76 BE; estone; fernesta; fernimine; ferxone; foredex 75; green cross weed-no-more "80"; hedonal; hedonal (the herbicide); herbidal; hivol-44; ipaner; lawn-keep; macondray; macrondray; miracle; monosan; mota maskros; moxone; netagrone; netagrone 600; pennamine D; phenox; pielik; planotox; plantgard; rcra waste number U240; red devil dry weed killer; rhodia; salvo; scott 4-XD weed control; scott's 4-XD weed control; silvaprop 1; superormone concentre; tributon; trinoxol; vergemaster; verton 2D; verton 38; vidon 638; visko-rhap low volatile 4l; weed tox; weed-B-gon; weed-ag-bar; weed-rhap; weed-rhap A-4; weed-rhap B-266; weed-rhap B-4; weed-rhap I-3.34; weed-rhap LV-4-0; weedatul; weedez wonder bar; weedone 100 emulsifiable; weedone LV4; weedtrol; β-selektonon

> <CAS Registry Numbers(R)>
94-75-7, 64296-19-1

$$$$
10,11-dihydroxycarbamazepine
  Mrv2222 01232613222D          

 20 22  0  0  0  0            999 V2000
    6.1237    0.8510    0.0000 C   0  0  0  0  0  0  0  0  0  0  0  0
    5.9401    1.6553    0.0000 C   0  0  0  0  0  0  0  0  0  0  0  0
    5.1517    1.8985    0.0000 C   0  0  0  0  0  0  0  0  0  0  0  0
    4.5470    1.3373    0.0000 C   0  0  0  0  0  0  0  0  0  0  0  0
    4.7305    0.5330    0.0000 C   0  0  0  0  0  0  0  0  0  0  0  0
    5.5189    0.2898    0.0000 C   0  0  0  0  0  0  0  0  0  0  0  0
    4.2162   -0.1120    0.0000 C   0  0  0  0  0  0  0  0  0  0  0  0
    3.3912   -0.1120    0.0000 C   0  0  0  0  0  0  0  0  0  0  0  0
    2.8768    0.5330    0.0000 C   0  0  0  0  0  0  0  0  0  0  0  0
    2.0884    0.2898    0.0000 C   0  0  0  0  0  0  0  0  0  0  0  0
    1.4837    0.8510    0.0000 C   0  0  0  0  0  0  0  0  0  0  0  0
    1.6673    1.6553    0.0000 C   0  0  0  0  0  0  0  0  0  0  0  0
    2.4556    1.8985    0.0000 C   0  0  0  0  0  0  0  0  0  0  0  0
    3.0604    1.3373    0.0000 C   0  0  0  0  0  0  0  0  0  0  0  0
    3.8037    1.6953    0.0000 N   0  0  0  0  0  0  0  0  0  0  0  0
    3.8037    2.5203    0.0000 C   0  0  0  0  0  0  0  0  0  0  0  0
    4.5181    2.9328    0.0000 O   0  0  0  0  0  0  0  0  0  0  0  0
    3.0892    2.9328    0.0000 N   0  0  0  0  0  0  0  0  0  0  0  0
    3.0332   -0.8553    0.0000 O   0  0  0  0  0  0  0  0  0  0  0  0
    4.5741   -0.8553    0.0000 O   0  0  0  0  0  0  0  0  0  0  0  0
  1  2  2  0  0  0  0
  2  3  1  0  0  0  0
  3  4  2  0  0  0  0
  4  5  1  0  0  0  0
  5  6  2  0  0  0  0
  1  6  1  0  0  0  0
  5  7  1  0  0  0  0
  7  8  1  0  0  0  0
  8  9  1  0  0  0  0
  9 10  2  0  0  0  0
 10 11  1  0  0  0  0
 11 12  2  0  0  0  0
 12 13  1  0  0  0  0
 13 14  2  0  0  0  0
  9 14  1  0  0  0  0
 14 15  1  0  0  0  0
  4 15  1  0  0  0  0
 15 16  1  0  0  0  0
 16 17  2  0  0  0  0
 16 18  1  0  0  0  0
  8 19  1  0  0  0  0
  7 20  1  0  0  0  0
M  END
> <Molar mass [g/mol] [MProp:scalar:double]>
270.288

> <Exact mass [Da] [MProp:scalar:double]>
270.100442319

> <Formula>
C15H14N2O3

> <Composition>
C (66.66%), H (5.22%), N (10.36%), O (17.76%)

> <Lipinski's rule of five [MProp:scalar:boolean]>
true

> <Atom count [MProp:scalar:integer]>
34

> <Heavy atom count [MProp:scalar:integer]>
20

> <Asymmetric atom count [MProp:scalar:integer]>
2

> <Rotatable bond count [MProp:scalar:integer]>
0

> <Ring count [MProp:scalar:integer]>
3

> <Aromatic ring count [MProp:scalar:integer]>
2

> <Hetero ring count [MProp:scalar:integer]>
1

> <FSP3 [MProp:scalar:double]>
0.13

> <Hydrogen bond donor count [MProp:scalar:integer]>
3

> <Hydrogen bond acceptor count [MProp:scalar:integer]>
3

> <Formal charge [MProp:scalar:integer]>
0

> <Topological polar surface area [A^2] [MProp:scalar:double]>
86.79

> <Polarizability [A^3] [MProp:scalar:double]>
28.26

> <Molar refractivity [cm^3/mol] [MProp:scalar:double]>
73.49

> <Van der Waals volume [A^3] [MProp:scalar:double]>
235.23

> <Minimum projection area [A^2] [MProp:scalar:double]>
48.6

> <Maximum projection area [A^2] [MProp:scalar:double]>
69.74

> <Minimum projection radius [A] [MProp:scalar:double]>
4.82

> <Maximum projection radius [A] [MProp:scalar:double]>
5.7

> <Van der Waals surface area [A^2] [MProp:scalar:double]>
354.02

> <Solvent accessible surface area [A^2] [MProp:scalar:double]>
365.99

> <Strongest acidic pKa [MProp:scalar:double]>
12.84

> <Strongest basic pKa>
N/A

> <Isoelectric point>
N/A

> <Intrinsic solubility [logS] [MProp:scalar:double]>
-2.64

> <Solubility category>
High

> <logP [MProp:scalar:double]>
0.81

> <logD_PH0 [MProp:scalar:double]>
0.81

> <logD_PH1 [MProp:scalar:double]>
0.81

> <logD_PH2 [MProp:scalar:double]>
0.81

> <logD_PH3 [MProp:scalar:double]>
0.81

> <logD_PH4 [MProp:scalar:double]>
0.81

> <logD_PH5 [MProp:scalar:double]>
0.81

> <logD_PH6 [MProp:scalar:double]>
0.81

> <logD_PH7 [MProp:scalar:double]>
0.81

> <logD_PH8 [MProp:scalar:double]>
0.81

> <logD_PH9 [MProp:scalar:double]>
0.81

> <logD_PH10 [MProp:scalar:double]>
0.81

> <logD_PH11 [MProp:scalar:double]>
0.81

> <logD_PH12 [MProp:scalar:double]>
0.75

> <logD_PH13 [MProp:scalar:double]>
0.41

> <logD_PH14 [MProp:scalar:double]>
-0.54

> <HLB [MProp:scalar:double]>
13.74

> <IUPAC name>
9,10-dihydroxy-2-azatricyclo[9.4.0.0³,⁸]pentadeca-1(15),3,5,7,11,13-hexaene-2-carboxamide

> <SMILES>
NC(=O)N1C2=CC=CC=C2C(O)C(O)C2=CC=CC=C12

> <InChI>
InChI=1/C15H14N2O3/c16-15(20)17-11-7-3-1-5-9(11)13(18)14(19)10-6-2-4-8-12(10)17/h1-8,13-14,18-19H,(H2,16,20)

> <InChIKey>
PRGQOPPDPVELEG-UHFFFAOYNA-N

> <Traditional name>
dihydroxycarbazepine

> <Common names>
dihydroxycarbazepine

> <CAS Registry Numbers(R)>
35079-97-1

$$$$
1-Decanol
  Mrv2222 01232613222D          

 11 10  0  0  0  0            999 V2000
    4.2355    3.2704    0.0000 C   0  0  0  0  0  0  0  0  0  0  0  0
    4.9500    2.8579    0.0000 C   0  0  0  0  0  0  0  0  0  0  0  0
    5.6645    3.2704    0.0000 C   0  0  0  0  0  0  0  0  0  0  0  0
    6.3789    2.8579    0.0000 C   0  0  0  0  0  0  0  0  0  0  0  0
    7.0934    3.2704    0.0000 C   0  0  0  0  0  0  0  0  0  0  0  0
    7.8079    2.8579    0.0000 C   0  0  0  0  0  0  0  0  0  0  0  0
    8.5224    3.2704    0.0000 C   0  0  0  0  0  0  0  0  0  0  0  0
    9.2368    2.8579    0.0000 C   0  0  0  0  0  0  0  0  0  0  0  0
    9.9513    3.2704    0.0000 C   0  0  0  0  0  0  0  0  0  0  0  0
   10.6658    2.8579    0.0000 C   0  0  0  0  0  0  0  0  0  0  0  0
   11.3802    3.2704    0.0000 O   0  0  0  0  0  0  0  0  0  0  0  0
  1  2  1  0  0  0  0
  2  3  1  0  0  0  0
  3  4  1  0  0  0  0
  4  5  1  0  0  0  0
  5  6  1  0  0  0  0
  6  7  1  0  0  0  0
  7  8  1  0  0  0  0
  8  9  1  0  0  0  0
  9 10  1  0  0  0  0
 10 11  1  0  0  0  0
M  END
> <Molar mass [g/mol] [MProp:scalar:double]>
158.285

> <Exact mass [Da] [MProp:scalar:double]>
158.167065328

> <Formula>
C10H22O

> <Composition>
C (75.88%), H (14.01%), O (10.11%)

> <Lipinski's rule of five [MProp:scalar:boolean]>
true

> <Atom count [MProp:scalar:integer]>
33

> <Heavy atom count [MProp:scalar:integer]>
11

> <Asymmetric atom count [MProp:scalar:integer]>
0

> <Rotatable bond count [MProp:scalar:integer]>
8

> <Ring count [MProp:scalar:integer]>
0

> <Aromatic ring count [MProp:scalar:integer]>
0

> <Hetero ring count [MProp:scalar:integer]>
0

> <FSP3 [MProp:scalar:double]>
1.0

> <Hydrogen bond donor count [MProp:scalar:integer]>
1

> <Hydrogen bond acceptor count [MProp:scalar:integer]>
1

> <Formal charge [MProp:scalar:integer]>
0

> <Topological polar surface area [A^2] [MProp:scalar:double]>
20.23

> <Polarizability [A^3] [MProp:scalar:double]>
19.78

> <Molar refractivity [cm^3/mol] [MProp:scalar:double]>
49.74

> <Van der Waals volume [A^3] [MProp:scalar:double]>
189.61

> <Minimum projection area [A^2] [MProp:scalar:double]>
22.85

> <Maximum projection area [A^2] [MProp:scalar:double]>
67.41

> <Minimum projection radius [A] [MProp:scalar:double]>
3.11

> <Maximum projection radius [A] [MProp:scalar:double]>
8.35

> <Van der Waals surface area [A^2] [MProp:scalar:double]>
348.48

> <Solvent accessible surface area [A^2] [MProp:scalar:double]>
462.76

> <Strongest acidic pKa>
N/A

> <Strongest basic pKa [MProp:scalar:double]>
-1.99

> <Isoelectric point>
N/A

> <Intrinsic solubility [logS] [MProp:scalar:double]>
-3.45

> <Solubility category>
Moderate

> <logP [MProp:scalar:double]>
3.47

> <logD_PH0 [MProp:scalar:double]>
3.47

> <logD_PH1 [MProp:scalar:double]>
3.47

> <logD_PH2 [MProp:scalar:double]>
3.47

> <logD_PH3 [MProp:scalar:double]>
3.47

> <logD_PH4 [MProp:scalar:double]>
3.47

> <logD_PH5 [MProp:scalar:double]>
3.47

> <logD_PH6 [MProp:scalar:double]>
3.47

> <logD_PH7 [MProp:scalar:double]>
3.47

> <logD_PH8 [MProp:scalar:double]>
3.47

> <logD_PH9 [MProp:scalar:double]>
3.47

> <logD_PH10 [MProp:scalar:double]>
3.47

> <logD_PH11 [MProp:scalar:double]>
3.47

> <logD_PH12 [MProp:scalar:double]>
3.47

> <logD_PH13 [MProp:scalar:double]>
3.47

> <logD_PH14 [MProp:scalar:double]>
3.47

> <HLB [MProp:scalar:double]>
4.06

> <IUPAC name>
decan-1-ol

> <SMILES>
CCCCCCCCCCO

> <InChI>
InChI=1S/C10H22O/c1-2-3-4-5-6-7-8-9-10-11/h11H,2-10H2,1H3

> <InChIKey>
MWKFXSUHUHTGQN-UHFFFAOYSA-N

> <Traditional name>
decanol

> <Common names>
1-decanol (natural); C 10 alcohol; C10 alcohol; C9-11 alcohols; agent 504; alcohol C-10; alcohols, C8-10; alcohols, C9-11; alfol 10; antak; capric alcohol; caprinic alcohol; caswell no. 275A; ccris 654; conol 10N; decyl, n- alcohol; dytol S-91; epa pesticide chemical code 079038; epal 10; fatty alcohol(C10); fema number 2365; kalcohl 1098; kalcohl 10H; lorol 22; n- alcohol decyl; n-decatyl alcohol; primary decyl alcohol; royaltac; royaltac M-2; royaltac-85; sipol L10

> <CAS Registry Numbers(R)>
112-30-1, 85566-12-7, 36729-58-5, 64641-46-9

$$$$
2(3H)-Benzothiazolone
  Mrv2222 01232613222D          

 10 11  0  0  0  0            999 V2000
    3.3523    1.9354    0.0000 C   0  0  0  0  0  0  0  0  0  0  0  0
    3.3523    1.1104    0.0000 C   0  0  0  0  0  0  0  0  0  0  0  0
    2.6378    0.6979    0.0000 C   0  0  0  0  0  0  0  0  0  0  0  0
    1.9233    1.1104    0.0000 C   0  0  0  0  0  0  0  0  0  0  0  0
    1.9233    1.9354    0.0000 C   0  0  0  0  0  0  0  0  0  0  0  0
    2.6378    2.3479    0.0000 C   0  0  0  0  0  0  0  0  0  0  0  0
    1.1387    2.1904    0.0000 N   0  0  0  0  0  0  0  0  0  0  0  0
    0.6538    1.5229    0.0000 C   0  0  0  0  0  0  0  0  0  0  0  0
   -0.1712    1.5229    0.0000 O   0  0  0  0  0  0  0  0  0  0  0  0
    1.1387    0.8555    0.0000 S   0  0  0  0  0  0  0  0  0  0  0  0
  1  2  2  0  0  0  0
  2  3  1  0  0  0  0
  3  4  2  0  0  0  0
  4  5  1  0  0  0  0
  5  6  2  0  0  0  0
  1  6  1  0  0  0  0
  5  7  1  0  0  0  0
  7  8  1  0  0  0  0
  8  9  2  0  0  0  0
  8 10  1  0  0  0  0
  4 10  1  0  0  0  0
M  END
> <Molar mass [g/mol] [MProp:scalar:double]>
151.18

> <Exact mass [Da] [MProp:scalar:double]>
151.009184959

> <Formula>
C7H5NOS

> <Composition>
C (55.61%), H (3.33%), N (9.26%), O (10.58%), S (21.21%)

> <Lipinski's rule of five [MProp:scalar:boolean]>
true

> <Atom count [MProp:scalar:integer]>
15

> <Heavy atom count [MProp:scalar:integer]>
10

> <Asymmetric atom count [MProp:scalar:integer]>
0

> <Rotatable bond count [MProp:scalar:integer]>
0

> <Ring count [MProp:scalar:integer]>
2

> <Aromatic ring count [MProp:scalar:integer]>
2

> <Hetero ring count [MProp:scalar:integer]>
1

> <FSP3 [MProp:scalar:double]>
0.0

> <Hydrogen bond donor count [MProp:scalar:integer]>
1

> <Hydrogen bond acceptor count [MProp:scalar:integer]>
2

> <Formal charge [MProp:scalar:integer]>
0

> <Topological polar surface area [A^2] [MProp:scalar:double]>
29.1

> <Polarizability [A^3] [MProp:scalar:double]>
15.71

> <Molar refractivity [cm^3/mol] [MProp:scalar:double]>
42.71

> <Van der Waals volume [A^3] [MProp:scalar:double]>
120.05

> <Minimum projection area [A^2] [MProp:scalar:double]>
22.1

> <Maximum projection area [A^2] [MProp:scalar:double]>
48.55

> <Minimum projection radius [A] [MProp:scalar:double]>
3.64

> <Maximum projection radius [A] [MProp:scalar:double]>
4.91

> <Van der Waals surface area [A^2] [MProp:scalar:double]>
180.05

> <Solvent accessible surface area [A^2] [MProp:scalar:double]>
278.3

> <Strongest acidic pKa [MProp:scalar:double]>
10.27

> <Strongest basic pKa>
N/A

> <Isoelectric point>
N/A

> <Intrinsic solubility [logS] [MProp:scalar:double]>
-2.71

> <Solubility category>
High

> <logP [MProp:scalar:double]>
1.99

> <logD_PH0 [MProp:scalar:double]>
1.99

> <logD_PH1 [MProp:scalar:double]>
1.99

> <logD_PH2 [MProp:scalar:double]>
1.99

> <logD_PH3 [MProp:scalar:double]>
1.99

> <logD_PH4 [MProp:scalar:double]>
1.99

> <logD_PH5 [MProp:scalar:double]>
1.99

> <logD_PH6 [MProp:scalar:double]>
1.99

> <logD_PH7 [MProp:scalar:double]>
1.99

> <logD_PH8 [MProp:scalar:double]>
1.99

> <logD_PH9 [MProp:scalar:double]>
1.97

> <logD_PH10 [MProp:scalar:double]>
1.81

> <logD_PH11 [MProp:scalar:double]>
1.29

> <logD_PH12 [MProp:scalar:double]>
0.82

> <logD_PH13 [MProp:scalar:double]>
0.7

> <logD_PH14 [MProp:scalar:double]>
0.69

> <HLB [MProp:scalar:double]>
9.24

> <IUPAC name>
2,3-dihydro-1,3-benzothiazol-2-one

> <SMILES>
O=C1NC2=CC=CC=C2S1

> <InChI>
InChI=1S/C7H5NOS/c9-7-8-5-3-1-2-4-6(5)10-7/h1-4H,(H,8,9)

> <InChIKey>
YEDUAINPPJYDJZ-UHFFFAOYSA-N

> <Traditional name>
benzothiazolone

> <Common names>
N/A

> <CAS Registry Numbers(R)>
934-34-9, 74343-69-4

$$$$
2,6-Dichlorobenzamide
  Mrv2222 01232613222D          

 11 11  0  0  0  0            999 V2000
    1.4289    0.0000    0.0000 C    0  0  0  0  0  0  0  0  0  0  0  0
    0.7145   -0.4125    0.0000 C    0  0  0  0  0  0  0  0  0  0  0  0
    0.0000    0.0000    0.0000 C    0  0  0  0  0  0  0  0  0  0  0  0
    0.0000    0.8250    0.0000 C    0  0  0  0  0  0  0  0  0  0  0  0
    0.7145    1.2375    0.0000 C    0  0  0  0  0  0  0  0  0  0  0  0
    1.4289    0.8250    0.0000 C    0  0  0  0  0  0  0  0  0  0  0  0
    0.7145    2.0625    0.0000 Cl   0  0  0  0  0  0  0  0  0  0  0  0
   -0.7145    1.2375    0.0000 C    0  0  0  0  0  0  0  0  0  0  0  0
   -1.4289    0.8250    0.0000 O    0  0  0  0  0  0  0  0  0  0  0  0
   -0.7145    2.0625    0.0000 N    0  0  0  0  0  0  0  0  0  0  0  0
   -0.7145   -0.4125    0.0000 Cl   0  0  0  0  0  0  0  0  0  0  0  0
  1  2  2  0  0  0  0
  2  3  1  0  0  0  0
  3  4  2  0  0  0  0
  4  5  1  0  0  0  0
  5  6  2  0  0  0  0
  1  6  1  0  0  0  0
  5  7  1  0  0  0  0
  4  8  1  0  0  0  0
  8  9  2  0  0  0  0
  8 10  1  0  0  0  0
  3 11  1  0  0  0  0
M  END
> <Molar mass [g/mol] [MProp:scalar:double]>
190.02

> <Exact mass [Da] [MProp:scalar:double]>
188.9748192

> <Formula>
C7H5Cl2NO

> <Composition>
C (44.25%), H (2.65%), Cl (37.31%), N (7.37%), O (8.42%)

> <Lipinski's rule of five [MProp:scalar:boolean]>
true

> <Atom count [MProp:scalar:integer]>
16

> <Heavy atom count [MProp:scalar:integer]>
11

> <Asymmetric atom count [MProp:scalar:integer]>
0

> <Rotatable bond count [MProp:scalar:integer]>
1

> <Ring count [MProp:scalar:integer]>
1

> <Aromatic ring count [MProp:scalar:integer]>
1

> <Hetero ring count [MProp:scalar:integer]>
0

> <FSP3 [MProp:scalar:double]>
0.0

> <Hydrogen bond donor count [MProp:scalar:integer]>
1

> <Hydrogen bond acceptor count [MProp:scalar:integer]>
1

> <Formal charge [MProp:scalar:integer]>
0

> <Topological polar surface area [A^2] [MProp:scalar:double]>
43.09

> <Polarizability [A^3] [MProp:scalar:double]>
17.03

> <Molar refractivity [cm^3/mol] [MProp:scalar:double]>
44.75

> <Van der Waals volume [A^3] [MProp:scalar:double]>
140.58

> <Minimum projection area [A^2] [MProp:scalar:double]>
24.69

> <Maximum projection area [A^2] [MProp:scalar:double]>
55.29

> <Minimum projection radius [A] [MProp:scalar:double]>
4.31

> <Maximum projection radius [A] [MProp:scalar:double]>
4.78

> <Van der Waals surface area [A^2] [MProp:scalar:double]>
210.29

> <Solvent accessible surface area [A^2] [MProp:scalar:double]>
310.72

> <Strongest acidic pKa [MProp:scalar:double]>
12.08

> <Strongest basic pKa [MProp:scalar:double]>
-0.29

> <Isoelectric point [MProp:scalar:double]>
5.9

> <Intrinsic solubility [logS] [MProp:scalar:double]>
-3.14

> <Solubility category>
High

> <logP [MProp:scalar:double]>
2.03

> <logD_PH0 [MProp:scalar:double]>
1.85

> <logD_PH1 [MProp:scalar:double]>
2.01

> <logD_PH2 [MProp:scalar:double]>
2.03

> <logD_PH3 [MProp:scalar:double]>
2.03

> <logD_PH4 [MProp:scalar:double]>
2.03

> <logD_PH5 [MProp:scalar:double]>
2.03

> <logD_PH6 [MProp:scalar:double]>
2.03

> <logD_PH7 [MProp:scalar:double]>
2.03

> <logD_PH8 [MProp:scalar:double]>
2.03

> <logD_PH9 [MProp:scalar:double]>
2.03

> <logD_PH10 [MProp:scalar:double]>
2.04

> <logD_PH11 [MProp:scalar:double]>
2.06

> <logD_PH12 [MProp:scalar:double]>
2.18

> <logD_PH13 [MProp:scalar:double]>
2.29

> <logD_PH14 [MProp:scalar:double]>
2.31

> <HLB [MProp:scalar:double]>
11.7

> <IUPAC name>
2,6-dichlorobenzamide

> <SMILES>
NC(=O)C1=C(Cl)C=CC=C1Cl

> <InChI>
InChI=1S/C7H5Cl2NO/c8-4-2-1-3-5(9)6(4)7(10)11/h1-3H,(H2,10,11)

> <InChIKey>
JHSPCUHPSIUQRB-UHFFFAOYSA-N

> <Traditional name>
2,6-dichlorobenzamide

> <Common names>
BAM

> <CAS Registry Numbers(R)>
2008-58-4

$$$$
2-Hydroxyibuprofen
  Mrv2222 01232613222D          

 16 16  0  0  0  0            999 V2000
    0.0000    2.4750    0.0000 C   0  0  0  0  0  0  0  0  0  0  0  0
    0.7145    2.0625    0.0000 C   0  0  0  0  0  0  0  0  0  0  0  0
    0.7145    1.2375    0.0000 C   0  0  0  0  0  0  0  0  0  0  0  0
    1.4289    0.8250    0.0000 C   0  0  0  0  0  0  0  0  0  0  0  0
    1.4289    0.0000    0.0000 C   0  0  0  0  0  0  0  0  0  0  0  0
    0.7145   -0.4125    0.0000 C   0  0  0  0  0  0  0  0  0  0  0  0
    0.0000    0.0000    0.0000 C   0  0  0  0  0  0  0  0  0  0  0  0
    0.0000    0.8250    0.0000 C   0  0  0  0  0  0  0  0  0  0  0  0
    0.7145   -1.2375    0.0000 C   0  0  0  0  0  0  0  0  0  0  0  0
    0.0000   -1.6500    0.0000 C   0  0  0  0  0  0  0  0  0  0  0  0
   -0.7145   -2.0625    0.0000 C   0  0  0  0  0  0  0  0  0  0  0  0
    0.4125   -2.3645    0.0000 C   0  0  0  0  0  0  0  0  0  0  0  0
   -0.4125   -0.9355    0.0000 O   0  0  0  0  0  0  0  0  0  0  0  0
    1.4289    2.4750    0.0000 C   0  0  0  0  0  0  0  0  0  0  0  0
    1.4289    3.3000    0.0000 O   0  0  0  0  0  0  0  0  0  0  0  0
    2.1434    2.0625    0.0000 O   0  0  0  0  0  0  0  0  0  0  0  0
  1  2  1  0  0  0  0
  2  3  1  0  0  0  0
  3  4  2  0  0  0  0
  4  5  1  0  0  0  0
  5  6  2  0  0  0  0
  6  7  1  0  0  0  0
  7  8  2  0  0  0  0
  3  8  1  0  0  0  0
  6  9  1  0  0  0  0
  9 10  1  0  0  0  0
 10 11  1  0  0  0  0
 10 12  1  0  0  0  0
 10 13  1  0  0  0  0
  2 14  1  0  0  0  0
 14 15  2  0  0  0  0
 14 16  1  0  0  0  0
M  END
> <Molar mass [g/mol] [MProp:scalar:double]>
222.284

> <Exact mass [Da] [MProp:scalar:double]>
222.12559444

> <Formula>
C13H18O3

> <Composition>
C (70.24%), H (8.16%), O (21.59%)

> <Lipinski's rule of five [MProp:scalar:boolean]>
true

> <Atom count [MProp:scalar:integer]>
34

> <Heavy atom count [MProp:scalar:integer]>
16

> <Asymmetric atom count [MProp:scalar:integer]>
1

> <Rotatable bond count [MProp:scalar:integer]>
4

> <Ring count [MProp:scalar:integer]>
1

> <Aromatic ring count [MProp:scalar:integer]>
1

> <Hetero ring count [MProp:scalar:integer]>
0

> <FSP3 [MProp:scalar:double]>
0.46

> <Hydrogen bond donor count [MProp:scalar:integer]>
2

> <Hydrogen bond acceptor count [MProp:scalar:integer]>
3

> <Formal charge [MProp:scalar:integer]>
0

> <Topological polar surface area [A^2] [MProp:scalar:double]>
57.53

> <Polarizability [A^3] [MProp:scalar:double]>
24.27

> <Molar refractivity [cm^3/mol] [MProp:scalar:double]>
62.57

> <Van der Waals volume [A^3] [MProp:scalar:double]>
220.43

> <Minimum projection area [A^2] [MProp:scalar:double]>
38.25

> <Maximum projection area [A^2] [MProp:scalar:double]>
65.82

> <Minimum projection radius [A] [MProp:scalar:double]>
3.81

> <Maximum projection radius [A] [MProp:scalar:double]>
6.36

> <Van der Waals surface area [A^2] [MProp:scalar:double]>
370.13

> <Solvent accessible surface area [A^2] [MProp:scalar:double]>
426.45

> <Strongest acidic pKa [MProp:scalar:double]>
4.63

> <Strongest basic pKa>
N/A

> <Isoelectric point>
N/A

> <Intrinsic solubility [logS] [MProp:scalar:double]>
-1.65

> <Solubility category>
High

> <logP [MProp:scalar:double]>
2.37

> <logD_PH0 [MProp:scalar:double]>
2.37

> <logD_PH1 [MProp:scalar:double]>
2.37

> <logD_PH2 [MProp:scalar:double]>
2.37

> <logD_PH3 [MProp:scalar:double]>
2.36

> <logD_PH4 [MProp:scalar:double]>
2.28

> <logD_PH5 [MProp:scalar:double]>
1.85

> <logD_PH6 [MProp:scalar:double]>
0.99

> <logD_PH7 [MProp:scalar:double]>
0.03

> <logD_PH8 [MProp:scalar:double]>
-0.77

> <logD_PH9 [MProp:scalar:double]>
-1.1

> <logD_PH10 [MProp:scalar:double]>
-1.15

> <logD_PH11 [MProp:scalar:double]>
-1.16

> <logD_PH12 [MProp:scalar:double]>
-1.16

> <logD_PH13 [MProp:scalar:double]>
-1.16

> <logD_PH14 [MProp:scalar:double]>
-1.18

> <HLB [MProp:scalar:double]>
6.55

> <IUPAC name>
2-[4-(2-hydroxy-2-methylpropyl)phenyl]propanoic acid

> <SMILES>
CC(C(O)=O)C1=CC=C(CC(C)(C)O)C=C1

> <InChI>
InChI=1/C13H18O3/c1-9(12(14)15)11-6-4-10(5-7-11)8-13(2,3)16/h4-7,9,16H,8H2,1-3H3,(H,14,15)

> <InChIKey>
UJHKVYPPCJBOSG-UHFFFAOYNA-N

> <Traditional name>
2-hydroxyibuprofen

> <Common names>
2-hydroxyibuprofen

> <CAS Registry Numbers(R)>
51146-55-5

$$$$
2-methyl-4-chlorophenoxyaceticacid
  Mrv2222 01232613222D          

 13 13  0  0  0  0            999 V2000
    0.7145    2.0625    0.0000 C    0  0  0  0  0  0  0  0  0  0  0  0
    0.7145    1.2375    0.0000 C    0  0  0  0  0  0  0  0  0  0  0  0
    1.4289    0.8250    0.0000 C    0  0  0  0  0  0  0  0  0  0  0  0
    1.4289    0.0000    0.0000 C    0  0  0  0  0  0  0  0  0  0  0  0
    0.7145   -0.4125    0.0000 C    0  0  0  0  0  0  0  0  0  0  0  0
    0.0000    0.0000    0.0000 C    0  0  0  0  0  0  0  0  0  0  0  0
    0.0000    0.8250    0.0000 C    0  0  0  0  0  0  0  0  0  0  0  0
   -0.7145   -0.4125    0.0000 Cl   0  0  0  0  0  0  0  0  0  0  0  0
    2.1434    1.2375    0.0000 O    0  0  0  0  0  0  0  0  0  0  0  0
    2.1434    2.0625    0.0000 C    0  0  0  0  0  0  0  0  0  0  0  0
    2.8579    2.4750    0.0000 C    0  0  0  0  0  0  0  0  0  0  0  0
    2.8579    3.3000    0.0000 O    0  0  0  0  0  0  0  0  0  0  0  0
    3.5724    2.0625    0.0000 O    0  0  0  0  0  0  0  0  0  0  0  0
  1  2  1  0  0  0  0
  2  3  2  0  0  0  0
  3  4  1  0  0  0  0
  4  5  2  0  0  0  0
  5  6  1  0  0  0  0
  6  7  2  0  0  0  0
  2  7  1  0  0  0  0
  6  8  1  0  0  0  0
  3  9  1  0  0  0  0
  9 10  1  0  0  0  0
 10 11  1  0  0  0  0
 11 12  2  0  0  0  0
 11 13  1  0  0  0  0
M  END
> <Molar mass [g/mol] [MProp:scalar:double]>
200.62

> <Exact mass [Da] [MProp:scalar:double]>
200.0240218

> <Formula>
C9H9ClO3

> <Composition>
C (53.88%), H (4.52%), Cl (17.67%), O (23.92%)

> <Lipinski's rule of five [MProp:scalar:boolean]>
true

> <Atom count [MProp:scalar:integer]>
22

> <Heavy atom count [MProp:scalar:integer]>
13

> <Asymmetric atom count [MProp:scalar:integer]>
0

> <Rotatable bond count [MProp:scalar:integer]>
3

> <Ring count [MProp:scalar:integer]>
1

> <Aromatic ring count [MProp:scalar:integer]>
1

> <Hetero ring count [MProp:scalar:integer]>
0

> <FSP3 [MProp:scalar:double]>
0.22

> <Hydrogen bond donor count [MProp:scalar:integer]>
1

> <Hydrogen bond acceptor count [MProp:scalar:integer]>
3

> <Formal charge [MProp:scalar:integer]>
0

> <Topological polar surface area [A^2] [MProp:scalar:double]>
46.53

> <Polarizability [A^3] [MProp:scalar:double]>
18.9

> <Molar refractivity [cm^3/mol] [MProp:scalar:double]>
48.45

> <Van der Waals volume [A^3] [MProp:scalar:double]>
166.6

> <Minimum projection area [A^2] [MProp:scalar:double]>
29.45

> <Maximum projection area [A^2] [MProp:scalar:double]>
61.77

> <Minimum projection radius [A] [MProp:scalar:double]>
4.0

> <Maximum projection radius [A] [MProp:scalar:double]>
6.36

> <Van der Waals surface area [A^2] [MProp:scalar:double]>
269.91

> <Solvent accessible surface area [A^2] [MProp:scalar:double]>
377.47

> <Strongest acidic pKa [MProp:scalar:double]>
2.96

> <Strongest basic pKa>
N/A

> <Isoelectric point>
N/A

> <Intrinsic solubility [logS] [MProp:scalar:double]>
-2.56

> <Solubility category>
High

> <logP [MProp:scalar:double]>
2.41

> <logD_PH0 [MProp:scalar:double]>
2.41

> <logD_PH1 [MProp:scalar:double]>
2.41

> <logD_PH2 [MProp:scalar:double]>
2.37

> <logD_PH3 [MProp:scalar:double]>
2.09

> <logD_PH4 [MProp:scalar:double]>
1.34

> <logD_PH5 [MProp:scalar:double]>
0.38

> <logD_PH6 [MProp:scalar:double]>
-0.5

> <logD_PH7 [MProp:scalar:double]>
-1.0

> <logD_PH8 [MProp:scalar:double]>
-1.11

> <logD_PH9 [MProp:scalar:double]>
-1.12

> <logD_PH10 [MProp:scalar:double]>
-1.12

> <logD_PH11 [MProp:scalar:double]>
-1.12

> <logD_PH12 [MProp:scalar:double]>
-1.12

> <logD_PH13 [MProp:scalar:double]>
-1.12

> <logD_PH14 [MProp:scalar:double]>
-1.12

> <HLB [MProp:scalar:double]>
8.61

> <IUPAC name>
2-(4-chloro-2-methylphenoxy)acetic acid

> <SMILES>
CC1=C(OCC(O)=O)C=CC(Cl)=C1

> <InChI>
InChI=1S/C9H9ClO3/c1-6-4-7(10)2-3-8(6)13-5-9(11)12/h2-4H,5H2,1H3,(H,11,12)

> <InChIKey>
WHKUVVPPKQRRBV-UHFFFAOYSA-N

> <Traditional name>
zelan

> <Common names>
4-chloro-o-cresoxyacetic acid; BH mcpa; MCP; MCPA; U 46 M-fluid; acme mcpa amine 4; agroxon; agroxone; anicon M; anicon kombi; banvel M; bordermaster; brominal M & plus; caswell no. 557C; chiptox; chwastox 30; chwastox extra; cornox-M; dicopur-M; emcepan; empal; epa pesticide chemical code 030501; hedapur M 52; hedarex M; hedonal M; herbicide M; hormotuho; hornotuho; kilsem; krezone; legumex DB; leuna M; leyspray; linormone; mephanac; metaxon; methyl chlorophenoxyacetic acid; methyl chlorophenoxyacetic acid (substance); methylchlorophenoxyacetic acid; netazol; okultin M; phenoxylene 50; phenoxylene plus; phenoxylene super; raphone; razol dock killer; rhomenc; rhomene; rhonox; seppic mmd; shamrox; trasan; ustinex; vacate; vesakontuho mcpa; weedar mcpa concentrate; weedone mcpa ester; zelan; β-selektonon M

> <CAS Registry Numbers(R)>
94-74-6

$$$$
4-Phenoxybutyricacid
  Mrv2222 01232613222D          

 13 13  0  0  0  0            999 V2000
   -1.4289    3.3000    0.0000 C   0  0  0  0  0  0  0  0  0  0  0  0
   -0.7145    3.7125    0.0000 C   0  0  0  0  0  0  0  0  0  0  0  0
    0.0000    3.3000    0.0000 C   0  0  0  0  0  0  0  0  0  0  0  0
    0.0000    2.4750    0.0000 C   0  0  0  0  0  0  0  0  0  0  0  0
   -0.7145    2.0625    0.0000 C   0  0  0  0  0  0  0  0  0  0  0  0
   -1.4289    2.4750    0.0000 C   0  0  0  0  0  0  0  0  0  0  0  0
    0.7145    2.0625    0.0000 O   0  0  0  0  0  0  0  0  0  0  0  0
    1.4289    2.4750    0.0000 C   0  0  0  0  0  0  0  0  0  0  0  0
    2.1434    2.0625    0.0000 C   0  0  0  0  0  0  0  0  0  0  0  0
    2.8579    2.4750    0.0000 C   0  0  0  0  0  0  0  0  0  0  0  0
    3.5724    2.0625    0.0000 C   0  0  0  0  0  0  0  0  0  0  0  0
    4.2868    2.4750    0.0000 O   0  0  0  0  0  0  0  0  0  0  0  0
    3.5724    1.2375    0.0000 O   0  0  0  0  0  0  0  0  0  0  0  0
  1  2  2  0  0  0  0
  2  3  1  0  0  0  0
  3  4  2  0  0  0  0
  4  5  1  0  0  0  0
  5  6  2  0  0  0  0
  1  6  1  0  0  0  0
  4  7  1  0  0  0  0
  7  8  1  0  0  0  0
  8  9  1  0  0  0  0
  9 10  1  0  0  0  0
 10 11  1  0  0  0  0
 11 12  2  0  0  0  0
 11 13  1  0  0  0  0
M  END
> <Molar mass [g/mol] [MProp:scalar:double]>
180.203

> <Exact mass [Da] [MProp:scalar:double]>
180.078644246

> <Formula>
C10H12O3

> <Composition>
C (66.65%), H (6.71%), O (26.63%)

> <Lipinski's rule of five [MProp:scalar:boolean]>
true

> <Atom count [MProp:scalar:integer]>
25

> <Heavy atom count [MProp:scalar:integer]>
13

> <Asymmetric atom count [MProp:scalar:integer]>
0

> <Rotatable bond count [MProp:scalar:integer]>
5

> <Ring count [MProp:scalar:integer]>
1

> <Aromatic ring count [MProp:scalar:integer]>
1

> <Hetero ring count [MProp:scalar:integer]>
0

> <FSP3 [MProp:scalar:double]>
0.3

> <Hydrogen bond donor count [MProp:scalar:integer]>
1

> <Hydrogen bond acceptor count [MProp:scalar:integer]>
3

> <Formal charge [MProp:scalar:integer]>
0

> <Topological polar surface area [A^2] [MProp:scalar:double]>
46.53

> <Polarizability [A^3] [MProp:scalar:double]>
18.89

> <Molar refractivity [cm^3/mol] [MProp:scalar:double]>
48.06

> <Van der Waals volume [A^3] [MProp:scalar:double]>
169.74

> <Minimum projection area [A^2] [MProp:scalar:double]>
26.34

> <Maximum projection area [A^2] [MProp:scalar:double]>
61.82

> <Minimum projection radius [A] [MProp:scalar:double]>
3.38

> <Maximum projection radius [A] [MProp:scalar:double]>
6.96

> <Van der Waals surface area [A^2] [MProp:scalar:double]>
283.01

> <Solvent accessible surface area [A^2] [MProp:scalar:double]>
404.79

> <Strongest acidic pKa [MProp:scalar:double]>
4.35

> <Strongest basic pKa>
N/A

> <Isoelectric point>
N/A

> <Intrinsic solubility [logS] [MProp:scalar:double]>
-1.54

> <Solubility category>
High

> <logP [MProp:scalar:double]>
1.82

> <logD_PH0 [MProp:scalar:double]>
1.82

> <logD_PH1 [MProp:scalar:double]>
1.82

> <logD_PH2 [MProp:scalar:double]>
1.82

> <logD_PH3 [MProp:scalar:double]>
1.8

> <logD_PH4 [MProp:scalar:double]>
1.66

> <logD_PH5 [MProp:scalar:double]>
1.08

> <logD_PH6 [MProp:scalar:double]>
0.17

> <logD_PH7 [MProp:scalar:double]>
-0.78

> <logD_PH8 [MProp:scalar:double]>
-1.46

> <logD_PH9 [MProp:scalar:double]>
-1.68

> <logD_PH10 [MProp:scalar:double]>
-1.71

> <logD_PH11 [MProp:scalar:double]>
-1.71

> <logD_PH12 [MProp:scalar:double]>
-1.71

> <logD_PH13 [MProp:scalar:double]>
-1.71

> <logD_PH14 [MProp:scalar:double]>
-1.71

> <HLB [MProp:scalar:double]>
8.24

> <IUPAC name>
4-phenoxybutanoic acid

> <SMILES>
OC(=O)CCCOC1=CC=CC=C1

> <InChI>
InChI=1S/C10H12O3/c11-10(12)7-4-8-13-9-5-2-1-3-6-9/h1-3,5-6H,4,7-8H2,(H,11,12)

> <InChIKey>
YKYVPFIBWVQZCE-UHFFFAOYSA-N

> <Traditional name>
butyric acid, 4-phenoxy-

> <Common names>
N/A

> <CAS Registry Numbers(R)>
6303-58-8, 38669-42-0

$$$$
5-Amino-2-methylphenol
  Mrv2222 01232613222D          

  9  9  0  0  0  0            999 V2000
    0.7145    2.0625    0.0000 C   0  0  0  0  0  0  0  0  0  0  0  0
    0.7145    1.2375    0.0000 C   0  0  0  0  0  0  0  0  0  0  0  0
    1.4289    0.8250    0.0000 C   0  0  0  0  0  0  0  0  0  0  0  0
    1.4289    0.0000    0.0000 C   0  0  0  0  0  0  0  0  0  0  0  0
    0.7145   -0.4125    0.0000 C   0  0  0  0  0  0  0  0  0  0  0  0
    0.0000    0.0000    0.0000 C   0  0  0  0  0  0  0  0  0  0  0  0
    0.0000    0.8250    0.0000 C   0  0  0  0  0  0  0  0  0  0  0  0
    0.7145   -1.2375    0.0000 N   0  0  0  0  0  0  0  0  0  0  0  0
    2.1434    1.2375    0.0000 O   0  0  0  0  0  0  0  0  0  0  0  0
  1  2  1  0  0  0  0
  2  3  2  0  0  0  0
  3  4  1  0  0  0  0
  4  5  2  0  0  0  0
  5  6  1  0  0  0  0
  6  7  2  0  0  0  0
  2  7  1  0  0  0  0
  5  8  1  0  0  0  0
  3  9  1  0  0  0  0
M  END
> <Molar mass [g/mol] [MProp:scalar:double]>
123.155

> <Exact mass [Da] [MProp:scalar:double]>
123.068413914

> <Formula>
C7H9NO

> <Composition>
C (68.27%), H (7.37%), N (11.37%), O (12.99%)

> <Lipinski's rule of five [MProp:scalar:boolean]>
true

> <Atom count [MProp:scalar:integer]>
18

> <Heavy atom count [MProp:scalar:integer]>
9

> <Asymmetric atom count [MProp:scalar:integer]>
0

> <Rotatable bond count [MProp:scalar:integer]>
0

> <Ring count [MProp:scalar:integer]>
1

> <Aromatic ring count [MProp:scalar:integer]>
1

> <Hetero ring count [MProp:scalar:integer]>
0

> <FSP3 [MProp:scalar:double]>
0.14

> <Hydrogen bond donor count [MProp:scalar:integer]>
2

> <Hydrogen bond acceptor count [MProp:scalar:integer]>
2

> <Formal charge [MProp:scalar:integer]>
0

> <Topological polar surface area [A^2] [MProp:scalar:double]>
46.25

> <Polarizability [A^3] [MProp:scalar:double]>
13.84

> <Molar refractivity [cm^3/mol] [MProp:scalar:double]>
37.78

> <Van der Waals volume [A^3] [MProp:scalar:double]>
118.35

> <Minimum projection area [A^2] [MProp:scalar:double]>
22.02

> <Maximum projection area [A^2] [MProp:scalar:double]>
46.3

> <Minimum projection radius [A] [MProp:scalar:double]>
3.6

> <Maximum projection radius [A] [MProp:scalar:double]>
4.61

> <Van der Waals surface area [A^2] [MProp:scalar:double]>
193.83

> <Solvent accessible surface area [A^2] [MProp:scalar:double]>
292.69

> <Strongest acidic pKa [MProp:scalar:double]>
10.09

> <Strongest basic pKa [MProp:scalar:double]>
4.48

> <Isoelectric point [MProp:scalar:double]>
7.29

> <Intrinsic solubility [logS] [MProp:scalar:double]>
-1.06

> <Solubility category>
High

> <logP [MProp:scalar:double]>
1.35

> <logD_PH0 [MProp:scalar:double]>
-0.89

> <logD_PH1 [MProp:scalar:double]>
-0.87

> <logD_PH2 [MProp:scalar:double]>
-0.69

> <logD_PH3 [MProp:scalar:double]>
-0.07

> <logD_PH4 [MProp:scalar:double]>
0.76

> <logD_PH5 [MProp:scalar:double]>
1.24

> <logD_PH6 [MProp:scalar:double]>
1.34

> <logD_PH7 [MProp:scalar:double]>
1.35

> <logD_PH8 [MProp:scalar:double]>
1.35

> <logD_PH9 [MProp:scalar:double]>
1.32

> <logD_PH10 [MProp:scalar:double]>
1.1

> <logD_PH11 [MProp:scalar:double]>
0.41

> <logD_PH12 [MProp:scalar:double]>
-0.4

> <logD_PH13 [MProp:scalar:double]>
-0.83

> <logD_PH14 [MProp:scalar:double]>
-0.91

> <HLB [MProp:scalar:double]>
7.75

> <IUPAC name>
5-amino-2-methylphenol

> <SMILES>
CC1=C(O)C=C(N)C=C1

> <InChI>
InChI=1S/C7H9NO/c1-5-2-3-6(8)4-7(5)9/h2-4,9H,8H2,1H3

> <InChIKey>
DBFYESDCPWWCHN-UHFFFAOYSA-N

> <Traditional name>
5-amino-o-cresol

> <Common names>
N/A

> <CAS Registry Numbers(R)>
2835-95-2, 2635-98-5

$$$$
5-Methyl-1H-benzotriazole
  Mrv2222 01232613222D          

 10 11  0  0  0  0            999 V2000
    2.7845    0.6979    0.0000 C   0  0  0  0  0  0  0  0  0  0  0  0
    2.0701    1.1104    0.0000 C   0  0  0  0  0  0  0  0  0  0  0  0
    1.3556    0.6979    0.0000 C   0  0  0  0  0  0  0  0  0  0  0  0
    0.6411    1.1104    0.0000 C   0  0  0  0  0  0  0  0  0  0  0  0
   -0.1435    0.8555    0.0000 N   0  0  0  0  0  0  0  0  0  0  0  0
   -0.6284    1.5229    0.0000 N   0  0  0  0  0  0  0  0  0  0  0  0
   -0.1435    2.1904    0.0000 N   0  0  0  0  0  0  0  0  0  0  0  0
    0.6411    1.9354    0.0000 C   0  0  0  0  0  0  0  0  0  0  0  0
    1.3556    2.3479    0.0000 C   0  0  0  0  0  0  0  0  0  0  0  0
    2.0701    1.9354    0.0000 C   0  0  0  0  0  0  0  0  0  0  0  0
  1  2  1  0  0  0  0
  2  3  1  0  0  0  0
  3  4  2  0  0  0  0
  4  5  1  0  0  0  0
  5  6  2  0  0  0  0
  6  7  1  0  0  0  0
  7  8  1  0  0  0  0
  4  8  1  0  0  0  0
  8  9  2  0  0  0  0
  9 10  1  0  0  0  0
  2 10  2  0  0  0  0
M  END
> <Molar mass [g/mol] [MProp:scalar:double]>
133.154

> <Exact mass [Da] [MProp:scalar:double]>
133.063997237

> <Formula>
C7H7N3

> <Composition>
C (63.14%), H (5.30%), N (31.56%)

> <Lipinski's rule of five [MProp:scalar:boolean]>
true

> <Atom count [MProp:scalar:integer]>
17

> <Heavy atom count [MProp:scalar:integer]>
10

> <Asymmetric atom count [MProp:scalar:integer]>
0

> <Rotatable bond count [MProp:scalar:integer]>
0

> <Ring count [MProp:scalar:integer]>
2

> <Aromatic ring count [MProp:scalar:integer]>
2

> <Hetero ring count [MProp:scalar:integer]>
1

> <FSP3 [MProp:scalar:double]>
0.14

> <Hydrogen bond donor count [MProp:scalar:integer]>
1

> <Hydrogen bond acceptor count [MProp:scalar:integer]>
2

> <Formal charge [MProp:scalar:integer]>
0

> <Topological polar surface area [A^2] [MProp:scalar:double]>
41.57

> <Polarizability [A^3] [MProp:scalar:double]>
15.55

> <Molar refractivity [cm^3/mol] [MProp:scalar:double]>
39.1

> <Van der Waals volume [A^3] [MProp:scalar:double]>
116.86

> <Minimum projection area [A^2] [MProp:scalar:double]>
22.02

> <Maximum projection area [A^2] [MProp:scalar:double]>
46.36

> <Minimum projection radius [A] [MProp:scalar:double]>
3.6

> <Maximum projection radius [A] [MProp:scalar:double]>
4.67

> <Van der Waals surface area [A^2] [MProp:scalar:double]>
190.15

> <Solvent accessible surface area [A^2] [MProp:scalar:double]>
293.04

> <Strongest acidic pKa [MProp:scalar:double]>
8.86

> <Strongest basic pKa [MProp:scalar:double]>
1.01

> <Isoelectric point [MProp:scalar:double]>
4.93

> <Intrinsic solubility [logS] [MProp:scalar:double]>
-1.76

> <Solubility category>
High

> <logP [MProp:scalar:double]>
1.81

> <logD_PH0 [MProp:scalar:double]>
0.77

> <logD_PH1 [MProp:scalar:double]>
1.51

> <logD_PH2 [MProp:scalar:double]>
1.77

> <logD_PH3 [MProp:scalar:double]>
1.81

> <logD_PH4 [MProp:scalar:double]>
1.81

> <logD_PH5 [MProp:scalar:double]>
1.81

> <logD_PH6 [MProp:scalar:double]>
1.81

> <logD_PH7 [MProp:scalar:double]>
1.81

> <logD_PH8 [MProp:scalar:double]>
1.76

> <logD_PH9 [MProp:scalar:double]>
1.45

> <logD_PH10 [MProp:scalar:double]>
0.77

> <logD_PH11 [MProp:scalar:double]>
0.31

> <logD_PH12 [MProp:scalar:double]>
0.22

> <logD_PH13 [MProp:scalar:double]>
0.2

> <logD_PH14 [MProp:scalar:double]>
0.2

> <HLB [MProp:scalar:double]>
6.94

> <IUPAC name>
5-methyl-1H-1,2,3-benzotriazole

> <SMILES>
CC1=CC=C2NN=NC2=C1

> <InChI>
InChI=1S/C7H7N3/c1-5-2-3-6-7(4-5)9-10-8-6/h2-4H,1H3,(H,8,9,10)

> <InChIKey>
LRUDIIUSNGCQKF-UHFFFAOYSA-N

> <Traditional name>
1H-benzotriazole, 5-methyl-

> <Common names>
N/A

> <CAS Registry Numbers(R)>
136-85-6

$$$$
Acenaphthene
  Mrv2222 01232613222D          

 12 14  0  0  0  0            999 V2000
    1.3377    0.0269    0.0000 C   0  0  0  0  0  0  0  0  0  0  0  0
    0.5127    0.0269    0.0000 C   0  0  0  0  0  0  0  0  0  0  0  0
    0.2578    0.8115    0.0000 C   0  0  0  0  0  0  0  0  0  0  0  0
   -0.4959    1.1470    0.0000 C   0  0  0  0  0  0  0  0  0  0  0  0
   -0.5821    1.9675    0.0000 C   0  0  0  0  0  0  0  0  0  0  0  0
    0.0853    2.4525    0.0000 C   0  0  0  0  0  0  0  0  0  0  0  0
    0.8390    2.1169    0.0000 C   0  0  0  0  0  0  0  0  0  0  0  0
    0.9252    1.2964    0.0000 C   0  0  0  0  0  0  0  0  0  0  0  0
    1.5926    0.8115    0.0000 C   0  0  0  0  0  0  0  0  0  0  0  0
    2.3463    1.1470    0.0000 C   0  0  0  0  0  0  0  0  0  0  0  0
    2.4326    1.9675    0.0000 C   0  0  0  0  0  0  0  0  0  0  0  0
    1.7651    2.4525    0.0000 C   0  0  0  0  0  0  0  0  0  0  0  0
  1  2  1  0  0  0  0
  2  3  1  0  0  0  0
  3  4  2  0  0  0  0
  4  5  1  0  0  0  0
  5  6  2  0  0  0  0
  6  7  1  0  0  0  0
  7  8  1  0  0  0  0
  3  8  1  0  0  0  0
  8  9  2  0  0  0  0
  1  9  1  0  0  0  0
  9 10  1  0  0  0  0
 10 11  2  0  0  0  0
 11 12  1  0  0  0  0
  7 12  2  0  0  0  0
M  END
> <Molar mass [g/mol] [MProp:scalar:double]>
154.212

> <Exact mass [Da] [MProp:scalar:double]>
154.078250322

> <Formula>
C12H10

> <Composition>
C (93.46%), H (6.54%)

> <Lipinski's rule of five [MProp:scalar:boolean]>
true

> <Atom count [MProp:scalar:integer]>
22

> <Heavy atom count [MProp:scalar:integer]>
12

> <Asymmetric atom count [MProp:scalar:integer]>
0

> <Rotatable bond count [MProp:scalar:integer]>
0

> <Ring count [MProp:scalar:integer]>
3

> <Aromatic ring count [MProp:scalar:integer]>
2

> <Hetero ring count [MProp:scalar:integer]>
0

> <FSP3 [MProp:scalar:double]>
0.17

> <Hydrogen bond donor count [MProp:scalar:integer]>
0

> <Hydrogen bond acceptor count [MProp:scalar:integer]>
0

> <Formal charge [MProp:scalar:integer]>
0

> <Topological polar surface area [A^2] [MProp:scalar:double]>
0.0

> <Polarizability [A^3] [MProp:scalar:double]>
20.82

> <Molar refractivity [cm^3/mol] [MProp:scalar:double]>
50.79

> <Van der Waals volume [A^3] [MProp:scalar:double]>
147.1

> <Minimum projection area [A^2] [MProp:scalar:double]>
28.8

> <Maximum projection area [A^2] [MProp:scalar:double]>
55.67

> <Minimum projection radius [A] [MProp:scalar:double]>
4.17

> <Maximum projection radius [A] [MProp:scalar:double]>
4.73

> <Van der Waals surface area [A^2] [MProp:scalar:double]>
236.57

> <Solvent accessible surface area [A^2] [MProp:scalar:double]>
315.1

> <Strongest acidic pKa>
N/A

> <Strongest basic pKa>
N/A

> <Isoelectric point>
N/A

> <Intrinsic solubility [logS] [MProp:scalar:double]>
-4.17

> <Solubility category>
Moderate

> <logP [MProp:scalar:double]>
3.53

> <logD_PH0 [MProp:scalar:double]>
3.53

> <logD_PH1 [MProp:scalar:double]>
3.53

> <logD_PH2 [MProp:scalar:double]>
3.53

> <logD_PH3 [MProp:scalar:double]>
3.53

> <logD_PH4 [MProp:scalar:double]>
3.53

> <logD_PH5 [MProp:scalar:double]>
3.53

> <logD_PH6 [MProp:scalar:double]>
3.53

> <logD_PH7 [MProp:scalar:double]>
3.53

> <logD_PH8 [MProp:scalar:double]>
3.53

> <logD_PH9 [MProp:scalar:double]>
3.53

> <logD_PH10 [MProp:scalar:double]>
3.53

> <logD_PH11 [MProp:scalar:double]>
3.53

> <logD_PH12 [MProp:scalar:double]>
3.53

> <logD_PH13 [MProp:scalar:double]>
3.53

> <logD_PH14 [MProp:scalar:double]>
3.53

> <HLB [MProp:scalar:double]>
1.95

> <IUPAC name>
1,2-dihydroacenaphthylene

> <SMILES>
C1CC2=C3C1=CC=CC3=CC=C2

> <InChI>
InChI=1S/C12H10/c1-3-9-4-2-6-11-8-7-10(5-1)12(9)11/h1-6H,7-8H2

> <InChIKey>
CWRYPZZKDGJXCA-UHFFFAOYSA-N

> <Traditional name>
acenaphthene

> <Common names>
1,8-dihydroacenaphthalene; 1,8-ethylenenaphthalene; ethylenenaphthalene; naphthyleneethylene; peri-ethylenenaphthalene

> <CAS Registry Numbers(R)>
83-32-9

$$$$
Acetaminophen
  Mrv2222 01232613222D          

 11 11  0  0  0  0            999 V2000
    0.0000    3.3000    0.0000 C   0  0  0  0  0  0  0  0  0  0  0  0
    0.0000    2.4750    0.0000 C   0  0  0  0  0  0  0  0  0  0  0  0
   -0.7145    2.0625    0.0000 O   0  0  0  0  0  0  0  0  0  0  0  0
    0.7145    2.0625    0.0000 N   0  0  0  0  0  0  0  0  0  0  0  0
    0.7145    1.2375    0.0000 C   0  0  0  0  0  0  0  0  0  0  0  0
    1.4289    0.8250    0.0000 C   0  0  0  0  0  0  0  0  0  0  0  0
    1.4289    0.0000    0.0000 C   0  0  0  0  0  0  0  0  0  0  0  0
    0.7145   -0.4125    0.0000 C   0  0  0  0  0  0  0  0  0  0  0  0
    0.0000    0.0000    0.0000 C   0  0  0  0  0  0  0  0  0  0  0  0
    0.0000    0.8250    0.0000 C   0  0  0  0  0  0  0  0  0  0  0  0
    0.7145   -1.2375    0.0000 O   0  0  0  0  0  0  0  0  0  0  0  0
  1  2  1  0  0  0  0
  2  3  2  0  0  0  0
  2  4  1  0  0  0  0
  4  5  1  0  0  0  0
  5  6  2  0  0  0  0
  6  7  1  0  0  0  0
  7  8  2  0  0  0  0
  8  9  1  0  0  0  0
  9 10  2  0  0  0  0
  5 10  1  0  0  0  0
  8 11  1  0  0  0  0
M  END
> <Molar mass [g/mol] [MProp:scalar:double]>
151.165

> <Exact mass [Da] [MProp:scalar:double]>
151.063328534

> <Formula>
C8H9NO2

> <Composition>
C (63.56%), H (6.00%), N (9.27%), O (21.17%)

> <Lipinski's rule of five [MProp:scalar:boolean]>
true

> <Atom count [MProp:scalar:integer]>
20

> <Heavy atom count [MProp:scalar:integer]>
11

> <Asymmetric atom count [MProp:scalar:integer]>
0

> <Rotatable bond count [MProp:scalar:integer]>
1

> <Ring count [MProp:scalar:integer]>
1

> <Aromatic ring count [MProp:scalar:integer]>
1

> <Hetero ring count [MProp:scalar:integer]>
0

> <FSP3 [MProp:scalar:double]>
0.12

> <Hydrogen bond donor count [MProp:scalar:integer]>
2

> <Hydrogen bond acceptor count [MProp:scalar:integer]>
2

> <Formal charge [MProp:scalar:integer]>
0

> <Topological polar surface area [A^2] [MProp:scalar:double]>
49.33

> <Polarizability [A^3] [MProp:scalar:double]>
15.82

> <Molar refractivity [cm^3/mol] [MProp:scalar:double]>
42.9

> <Van der Waals volume [A^3] [MProp:scalar:double]>
138.08

> <Minimum projection area [A^2] [MProp:scalar:double]>
21.75

> <Maximum projection area [A^2] [MProp:scalar:double]>
54.37

> <Minimum projection radius [A] [MProp:scalar:double]>
3.49

> <Maximum projection radius [A] [MProp:scalar:double]>
5.67

> <Van der Waals surface area [A^2] [MProp:scalar:double]>
222.63

> <Solvent accessible surface area [A^2] [MProp:scalar:double]>
332.75

> <Strongest acidic pKa [MProp:scalar:double]>
9.46

> <Strongest basic pKa>
N/A

> <Isoelectric point>
N/A

> <Intrinsic solubility [logS] [MProp:scalar:double]>
-1.13

> <Solubility category>
High

> <logP [MProp:scalar:double]>
0.91

> <logD_PH0 [MProp:scalar:double]>
0.91

> <logD_PH1 [MProp:scalar:double]>
0.91

> <logD_PH2 [MProp:scalar:double]>
0.91

> <logD_PH3 [MProp:scalar:double]>
0.91

> <logD_PH4 [MProp:scalar:double]>
0.91

> <logD_PH5 [MProp:scalar:double]>
0.91

> <logD_PH6 [MProp:scalar:double]>
0.91

> <logD_PH7 [MProp:scalar:double]>
0.91

> <logD_PH8 [MProp:scalar:double]>
0.89

> <logD_PH9 [MProp:scalar:double]>
0.78

> <logD_PH10 [MProp:scalar:double]>
0.27

> <logD_PH11 [MProp:scalar:double]>
-0.56

> <logD_PH12 [MProp:scalar:double]>
-1.15

> <logD_PH13 [MProp:scalar:double]>
-1.31

> <logD_PH14 [MProp:scalar:double]>
-1.33

> <HLB [MProp:scalar:double]>
14.14

> <IUPAC name>
N-(4-hydroxyphenyl)acetamide

> <SMILES>
CC(=O)NC1=CC=C(O)C=C1

> <InChI>
InChI=1S/C8H9NO2/c1-6(10)9-7-2-4-8(11)5-3-7/h2-5,11H,1H3,(H,9,10)

> <InChIKey>
RZVAJINKPMORJF-UHFFFAOYSA-N

> <Traditional name>
acetaminophen

> <Common names>
APAP; N-acetyl-p-aminophenol; acenol; acetaminofen; acetaminophene; calpol; korum; paracetamolo; paracetamolum; paracetanol; prompt; tapanol; tempra; 对乙酰氨基酚

> <CAS Registry Numbers(R)>
103-90-2

$$$$
Acetamiprid
  Mrv2222 01232613222D          

 15 15  0  0  0  0            999 V2000
   -0.7145    3.7125    0.0000 C    0  0  0  0  0  0  0  0  0  0  0  0
    0.0000    3.3000    0.0000 C    0  0  0  0  0  0  0  0  0  0  0  0
    0.7145    3.7125    0.0000 N    0  0  0  0  0  0  0  0  0  0  0  0
    0.7145    4.5375    0.0000 C    0  0  0  0  0  0  0  0  0  0  0  0
    0.7145    5.3625    0.0000 N    0  0  0  0  0  0  0  0  0  0  0  0
    0.0000    2.4750    0.0000 N    0  0  0  0  0  0  0  0  0  0  0  0
   -0.7145    2.0625    0.0000 C    0  0  0  0  0  0  0  0  0  0  0  0
    0.7145    2.0625    0.0000 C    0  0  0  0  0  0  0  0  0  0  0  0
    0.7145    1.2375    0.0000 C    0  0  0  0  0  0  0  0  0  0  0  0
    1.4289    0.8250    0.0000 C    0  0  0  0  0  0  0  0  0  0  0  0
    1.4289    0.0000    0.0000 N    0  0  0  0  0  0  0  0  0  0  0  0
    0.7145   -0.4125    0.0000 C    0  0  0  0  0  0  0  0  0  0  0  0
    0.0000    0.0000    0.0000 C    0  0  0  0  0  0  0  0  0  0  0  0
    0.0000    0.8250    0.0000 C    0  0  0  0  0  0  0  0  0  0  0  0
    0.7145   -1.2375    0.0000 Cl   0  0  0  0  0  0  0  0  0  0  0  0
  1  2  1  0  0  0  0
  2  3  2  0  0  0  0
  3  4  1  4  0  0  0
  4  5  3  0  0  0  0
  2  6  1  0  0  0  0
  6  7  1  0  0  0  0
  6  8  1  0  0  0  0
  8  9  1  0  0  0  0
  9 10  2  0  0  0  0
 10 11  1  0  0  0  0
 11 12  2  0  0  0  0
 12 13  1  0  0  0  0
 13 14  2  0  0  0  0
  9 14  1  0  0  0  0
 12 15  1  0  0  0  0
M  END
> <Molar mass [g/mol] [MProp:scalar:double]>
222.68

> <Exact mass [Da] [MProp:scalar:double]>
222.0672241

> <Formula>
C10H11ClN4

> <Composition>
C (53.94%), H (4.98%), Cl (15.92%), N (25.16%)

> <Lipinski's rule of five [MProp:scalar:boolean]>
true

> <Atom count [MProp:scalar:integer]>
26

> <Heavy atom count [MProp:scalar:integer]>
15

> <Asymmetric atom count [MProp:scalar:integer]>
0

> <Rotatable bond count [MProp:scalar:integer]>
2

> <Ring count [MProp:scalar:integer]>
1

> <Aromatic ring count [MProp:scalar:integer]>
1

> <Hetero ring count [MProp:scalar:integer]>
1

> <FSP3 [MProp:scalar:double]>
0.3

> <Hydrogen bond donor count [MProp:scalar:integer]>
0

> <Hydrogen bond acceptor count [MProp:scalar:integer]>
4

> <Formal charge [MProp:scalar:integer]>
0

> <Topological polar surface area [A^2] [MProp:scalar:double]>
52.28

> <Polarizability [A^3] [MProp:scalar:double]>
22.29

> <Molar refractivity [cm^3/mol] [MProp:scalar:double]>
60.89

> <Van der Waals volume [A^3] [MProp:scalar:double]>
193.58

> <Minimum projection area [A^2] [MProp:scalar:double]>
40.45

> <Maximum projection area [A^2] [MProp:scalar:double]>
63.03

> <Minimum projection radius [A] [MProp:scalar:double]>
4.56

> <Maximum projection radius [A] [MProp:scalar:double]>
5.85

> <Van der Waals surface area [A^2] [MProp:scalar:double]>
309.61

> <Solvent accessible surface area [A^2] [MProp:scalar:double]>
377.8

> <Strongest acidic pKa>
N/A

> <Strongest basic pKa [MProp:scalar:double]>
4.16

> <Isoelectric point>
N/A

> <Intrinsic solubility [logS] [MProp:scalar:double]>
-2.09

> <Solubility category>
High

> <logP [MProp:scalar:double]>
1.11

> <logD_PH0 [MProp:scalar:double]>
-1.47

> <logD_PH1 [MProp:scalar:double]>
-1.25

> <logD_PH2 [MProp:scalar:double]>
-0.86

> <logD_PH3 [MProp:scalar:double]>
-0.06

> <logD_PH4 [MProp:scalar:double]>
0.73

> <logD_PH5 [MProp:scalar:double]>
1.06

> <logD_PH6 [MProp:scalar:double]>
1.11

> <logD_PH7 [MProp:scalar:double]>
1.11

> <logD_PH8 [MProp:scalar:double]>
1.11

> <logD_PH9 [MProp:scalar:double]>
1.11

> <logD_PH10 [MProp:scalar:double]>
1.11

> <logD_PH11 [MProp:scalar:double]>
1.11

> <logD_PH12 [MProp:scalar:double]>
1.11

> <logD_PH13 [MProp:scalar:double]>
1.11

> <logD_PH14 [MProp:scalar:double]>
1.11

> <HLB [MProp:scalar:double]>
12.96

> <IUPAC name>
N-[(6-chloropyridin-3-yl)methyl]-N'-cyano-N-methylethanimidamide

> <SMILES>
CN(CC1=CN=C(Cl)C=C1)C(C)=NC#N

> <InChI>
InChI=1S/C10H11ClN4/c1-8(14-7-12)15(2)6-9-3-4-10(11)13-5-9/h3-5H,6H2,1-2H3

> <InChIKey>
WCXDHFDTOYPNIE-UHFFFAOYSA-N

> <Traditional name>
acetamiprid

> <Common names>
N/A

> <CAS Registry Numbers(R)>
160430-64-8, 135410-20-7

$$$$
Acetylsalicylicacid
  Mrv2222 01232613222D          

 13 13  0  0  0  0            999 V2000
    1.4289    3.3000    0.0000 C   0  0  0  0  0  0  0  0  0  0  0  0
    1.4289    2.4750    0.0000 C   0  0  0  0  0  0  0  0  0  0  0  0
    2.1434    2.0625    0.0000 O   0  0  0  0  0  0  0  0  0  0  0  0
    0.7145    2.0625    0.0000 O   0  0  0  0  0  0  0  0  0  0  0  0
    0.7145    1.2375    0.0000 C   0  0  0  0  0  0  0  0  0  0  0  0
    1.4289    0.8250    0.0000 C   0  0  0  0  0  0  0  0  0  0  0  0
    1.4289    0.0000    0.0000 C   0  0  0  0  0  0  0  0  0  0  0  0
    0.7145   -0.4125    0.0000 C   0  0  0  0  0  0  0  0  0  0  0  0
    0.0000    0.0000    0.0000 C   0  0  0  0  0  0  0  0  0  0  0  0
    0.0000    0.8250    0.0000 C   0  0  0  0  0  0  0  0  0  0  0  0
   -0.7145    1.2375    0.0000 C   0  0  0  0  0  0  0  0  0  0  0  0
   -0.7145    2.0625    0.0000 O   0  0  0  0  0  0  0  0  0  0  0  0
   -1.4289    0.8250    0.0000 O   0  0  0  0  0  0  0  0  0  0  0  0
  1  2  1  0  0  0  0
  2  3  2  0  0  0  0
  2  4  1  0  0  0  0
  4  5  1  0  0  0  0
  5  6  2  0  0  0  0
  6  7  1  0  0  0  0
  7  8  2  0  0  0  0
  8  9  1  0  0  0  0
  9 10  2  0  0  0  0
  5 10  1  0  0  0  0
 10 11  1  0  0  0  0
 11 12  2  0  0  0  0
 11 13  1  0  0  0  0
M  END
> <Molar mass [g/mol] [MProp:scalar:double]>
180.159

> <Exact mass [Da] [MProp:scalar:double]>
180.042258738

> <Formula>
C9H8O4

> <Composition>
C (60.00%), H (4.48%), O (35.52%)

> <Lipinski's rule of five [MProp:scalar:boolean]>
true

> <Atom count [MProp:scalar:integer]>
21

> <Heavy atom count [MProp:scalar:integer]>
13

> <Asymmetric atom count [MProp:scalar:integer]>
0

> <Rotatable bond count [MProp:scalar:integer]>
3

> <Ring count [MProp:scalar:integer]>
1

> <Aromatic ring count [MProp:scalar:integer]>
1

> <Hetero ring count [MProp:scalar:integer]>
0

> <FSP3 [MProp:scalar:double]>
0.11

> <Hydrogen bond donor count [MProp:scalar:integer]>
1

> <Hydrogen bond acceptor count [MProp:scalar:integer]>
3

> <Formal charge [MProp:scalar:integer]>
0

> <Topological polar surface area [A^2] [MProp:scalar:double]>
63.6

> <Polarizability [A^3] [MProp:scalar:double]>
17.15

> <Molar refractivity [cm^3/mol] [MProp:scalar:double]>
44.45

> <Van der Waals volume [A^3] [MProp:scalar:double]>
154.71

> <Minimum projection area [A^2] [MProp:scalar:double]>
32.87

> <Maximum projection area [A^2] [MProp:scalar:double]>
55.43

> <Minimum projection radius [A] [MProp:scalar:double]>
4.42

> <Maximum projection radius [A] [MProp:scalar:double]>
5.06

> <Van der Waals surface area [A^2] [MProp:scalar:double]>
246.18

> <Solvent accessible surface area [A^2] [MProp:scalar:double]>
368.7

> <Strongest acidic pKa [MProp:scalar:double]>
3.41

> <Strongest basic pKa>
N/A

> <Isoelectric point>
N/A

> <Intrinsic solubility [logS] [MProp:scalar:double]>
-1.85

> <Solubility category>
High

> <logP [MProp:scalar:double]>
1.24

> <logD_PH0 [MProp:scalar:double]>
1.24

> <logD_PH1 [MProp:scalar:double]>
1.24

> <logD_PH2 [MProp:scalar:double]>
1.22

> <logD_PH3 [MProp:scalar:double]>
1.1

> <logD_PH4 [MProp:scalar:double]>
0.55

> <logD_PH5 [MProp:scalar:double]>
-0.35

> <logD_PH6 [MProp:scalar:double]>
-1.3

> <logD_PH7 [MProp:scalar:double]>
-2.02

> <logD_PH8 [MProp:scalar:double]>
-2.25

> <logD_PH9 [MProp:scalar:double]>
-2.29

> <logD_PH10 [MProp:scalar:double]>
-2.29

> <logD_PH11 [MProp:scalar:double]>
-2.29

> <logD_PH12 [MProp:scalar:double]>
-2.29

> <logD_PH13 [MProp:scalar:double]>
-2.29

> <logD_PH14 [MProp:scalar:double]>
-2.29

> <HLB [MProp:scalar:double]>
10.09

> <IUPAC name>
2-(acetyloxy)benzoic acid

> <SMILES>
CC(=O)OC1=CC=CC=C1C(O)=O

> <InChI>
InChI=1S/C9H8O4/c1-6(10)13-8-5-3-2-4-7(8)9(11)12/h2-5H,1H3,(H,11,12)

> <InChIKey>
BSYNRYMUTXBXSQ-UHFFFAOYSA-N

> <Traditional name>
aspirin

> <Common names>
8-hour bayer; A.S.A. empirin; ASA; ECM; O-accetylsalicylic acid; Xaxa; acenterine; acesal; acetal; acetard; aceticyl; acetilsalicilico; acetilum acidulatum; acetisal; acetophen; acetosal; acetosalic acid; acetosalin; acetoxybenzoic acid; acetyl salicylic acid; acetylin; acetylsal; acetylsalicyclic acid; acetylsalicylic acid; acetylsalicylsaeure; acetylsalicylsaure; acetylsalycilic acid; acetyonyl; acetysal; acetysalicylic acid; acid, acetylsalicylic; acide 2-(acetyloxy)benzoique; acide acetylsalicylique; acide acetylsalicylique (french); acido O-acetil-benzoico; acido acetilsalicilico; acidum acetylsalicylicum; acimetten; acisal; acylpyrin; adiro; aloxiprimum; asagran; asatard; ascoden-30; aspalon; aspec; aspergum; aspirdrops; aspirin; aspirin (product); aspirin (substance); aspirin - chemical; aspirin preparation; aspirina 03; aspirine; aspro; aspro clear; asteric; azetylsalizylsaeure; bayer extra strength aspirin for migraine pain; benaspir; bi-prin; bialpirina; bialpirinia; caprin; cardioaspirina; cemirit; claradin; clariprin; colfarit; contrheuma retard; coricidin; crystar; decaten; delgesic; dispril; dolean ph 8; duramax; easprin; ecolen; ecotrin; empirin; endosprin; endydol; entericin; enterophen; enterosarein; enterosarine; entrophen; extren; globentyl; globoid; helicon; idragin; istopirin; kapsazal; kyselina 2-acetoxybenzoova; kyselina acetylsalicylova; levius; magnecyl; measurin; medisyl; micristin; neuronika; novid; nu-seals; nu-seals aspirin; persistin; pharmacin; pirseal; polopirin; polopiryna; premaspin; rheumin tabletten; rheumintabletten; rhodine; rhonal; ronal; salacetin; salcetogen; saletin; salicylic acid acetate; salicylic acid, acetate; salospir; solfrin; solprin; solprin acid; solpyron; solupsan; spira-dine; st. joseph; st. joseph aspirin for adults; supac; tasprin; temperal; toldex; triaminicin; triple-sal; vanquish; yasta; zorprin; 阿司匹林

> <CAS Registry Numbers(R)>
50-78-2, 11126-35-5

$$$$
Aclonifen
  Mrv2222 01232613222D          

 18 19  0  0  0  0            999 V2000
    2.1434   -2.8875    0.0000 C    0  0  0  0  0  0  0  0  0  0  0  0
    1.4289   -2.4750    0.0000 C    0  0  0  0  0  0  0  0  0  0  0  0
    1.4289   -1.6500    0.0000 C    0  0  0  0  0  0  0  0  0  0  0  0
    2.1434   -1.2375    0.0000 C    0  0  0  0  0  0  0  0  0  0  0  0
    2.8579   -1.6500    0.0000 C    0  0  0  0  0  0  0  0  0  0  0  0
    2.8579   -2.4750    0.0000 C    0  0  0  0  0  0  0  0  0  0  0  0
    2.1434   -0.4125    0.0000 O    0  0  0  0  0  0  0  0  0  0  0  0
    2.8579    0.0000    0.0000 C    0  0  0  0  0  0  0  0  0  0  0  0
    2.8579    0.8250    0.0000 C    0  0  0  0  0  0  0  0  0  0  0  0
    3.5724    1.2375    0.0000 C    0  0  0  0  0  0  0  0  0  0  0  0
    4.2868    0.8250    0.0000 C    0  0  0  0  0  0  0  0  0  0  0  0
    4.2868    0.0000    0.0000 C    0  0  0  0  0  0  0  0  0  0  0  0
    3.5724   -0.4125    0.0000 C    0  0  0  0  0  0  0  0  0  0  0  0
    5.0013    1.2375    0.0000 N    0  3  0  0  0  0  0  0  0  0  0  0
    5.0013    2.0625    0.0000 O    0  0  0  0  0  0  0  0  0  0  0  0
    5.7158    0.8250    0.0000 O    0  5  0  0  0  0  0  0  0  0  0  0
    3.5724    2.0625    0.0000 N    0  0  0  0  0  0  0  0  0  0  0  0
    2.1434    1.2375    0.0000 Cl   0  0  0  0  0  0  0  0  0  0  0  0
  1  2  2  0  0  0  0
  2  3  1  0  0  0  0
  3  4  2  0  0  0  0
  4  5  1  0  0  0  0
  5  6  2  0  0  0  0
  1  6  1  0  0  0  0
  4  7  1  0  0  0  0
  7  8  1  0  0  0  0
  8  9  2  0  0  0  0
  9 10  1  0  0  0  0
 10 11  2  0  0  0  0
 11 12  1  0  0  0  0
 12 13  2  0  0  0  0
  8 13  1  0  0  0  0
 11 14  1  0  0  0  0
 14 15  2  0  0  0  0
 14 16  1  0  0  0  0
 10 17  1  0  0  0  0
  9 18  1  0  0  0  0
M  END
> <Molar mass [g/mol] [MProp:scalar:double]>
264.67

> <Exact mass [Da] [MProp:scalar:double]>
264.0301699

> <Formula>
C12H9ClN2O3

> <Composition>
C (54.46%), H (3.43%), Cl (13.39%), N (10.58%), O (18.14%)

> <Lipinski's rule of five [MProp:scalar:boolean]>
true

> <Atom count [MProp:scalar:integer]>
27

> <Heavy atom count [MProp:scalar:integer]>
18

> <Asymmetric atom count [MProp:scalar:integer]>
0

> <Rotatable bond count [MProp:scalar:integer]>
3

> <Ring count [MProp:scalar:integer]>
2

> <Aromatic ring count [MProp:scalar:integer]>
2

> <Hetero ring count [MProp:scalar:integer]>
0

> <FSP3 [MProp:scalar:double]>
0.0

> <Hydrogen bond donor count [MProp:scalar:integer]>
1

> <Hydrogen bond acceptor count [MProp:scalar:integer]>
3

> <Formal charge [MProp:scalar:integer]>
0

> <Topological polar surface area [A^2] [MProp:scalar:double]>
78.39

> <Polarizability [A^3] [MProp:scalar:double]>
25.6

> <Molar refractivity [cm^3/mol] [MProp:scalar:double]>
68.12

> <Van der Waals volume [A^3] [MProp:scalar:double]>
209.95

> <Minimum projection area [A^2] [MProp:scalar:double]>
41.18

> <Maximum projection area [A^2] [MProp:scalar:double]>
74.23

> <Minimum projection radius [A] [MProp:scalar:double]>
4.47

> <Maximum projection radius [A] [MProp:scalar:double]>
6.16

> <Van der Waals surface area [A^2] [MProp:scalar:double]>
324.46

> <Solvent accessible surface area [A^2] [MProp:scalar:double]>
423.03

> <Strongest acidic pKa [MProp:scalar:double]>
12.98

> <Strongest basic pKa [MProp:scalar:double]>
-0.7

> <Isoelectric point [MProp:scalar:double]>
6.04

> <Intrinsic solubility [logS] [MProp:scalar:double]>
-4.74

> <Solubility category>
Low

> <logP [MProp:scalar:double]>
3.84

> <logD_PH0 [MProp:scalar:double]>
3.84

> <logD_PH1 [MProp:scalar:double]>
3.84

> <logD_PH2 [MProp:scalar:double]>
3.84

> <logD_PH3 [MProp:scalar:double]>
3.84

> <logD_PH4 [MProp:scalar:double]>
3.84

> <logD_PH5 [MProp:scalar:double]>
3.84

> <logD_PH6 [MProp:scalar:double]>
3.84

> <logD_PH7 [MProp:scalar:double]>
3.84

> <logD_PH8 [MProp:scalar:double]>
3.84

> <logD_PH9 [MProp:scalar:double]>
3.84

> <logD_PH10 [MProp:scalar:double]>
3.84

> <logD_PH11 [MProp:scalar:double]>
3.83

> <logD_PH12 [MProp:scalar:double]>
3.8

> <logD_PH13 [MProp:scalar:double]>
3.55

> <logD_PH14 [MProp:scalar:double]>
2.99

> <HLB [MProp:scalar:double]>
5.74

> <IUPAC name>
2-chloro-6-nitro-3-phenoxyaniline

> <SMILES>
NC1=C(C=CC(OC2=CC=CC=C2)=C1Cl)[N+]([O-])=O

> <InChI>
InChI=1S/C12H9ClN2O3/c13-11-10(18-8-4-2-1-3-5-8)7-6-9(12(11)14)15(16)17/h1-7H,14H2

> <InChIKey>
DDBMQDADIHOWIC-UHFFFAOYSA-N

> <Traditional name>
aclonifen

> <Common names>
aclonifen

> <CAS Registry Numbers(R)>
74070-46-5

$$$$
Amitriptyline
  Mrv2222 01232613222D          

 21 23  0  0  0  0            999 V2000
    2.3747    3.6320    0.0000 C   0  0  0  0  0  0  0  0  0  0  0  0
    2.3747    2.8070    0.0000 N   0  0  0  0  0  0  0  0  0  0  0  0
    1.6603    2.3945    0.0000 C   0  0  0  0  0  0  0  0  0  0  0  0
    3.0892    2.3945    0.0000 C   0  0  0  0  0  0  0  0  0  0  0  0
    3.0892    1.5695    0.0000 C   0  0  0  0  0  0  0  0  0  0  0  0
    3.8037    1.1570    0.0000 C   0  0  0  0  0  0  0  0  0  0  0  0
    3.8037    0.3320    0.0000 C   0  0  0  0  0  0  0  0  0  0  0  0
    4.5470   -0.0260    0.0000 C   0  0  0  0  0  0  0  0  0  0  0  0
    5.1517    0.5352    0.0000 C   0  0  0  0  0  0  0  0  0  0  0  0
    5.9401    0.2920    0.0000 C   0  0  0  0  0  0  0  0  0  0  0  0
    6.1237   -0.5123    0.0000 C   0  0  0  0  0  0  0  0  0  0  0  0
    5.5189   -1.0735    0.0000 C   0  0  0  0  0  0  0  0  0  0  0  0
    4.7305   -0.8303    0.0000 C   0  0  0  0  0  0  0  0  0  0  0  0
    4.2162   -1.4753    0.0000 C   0  0  0  0  0  0  0  0  0  0  0  0
    3.3912   -1.4753    0.0000 C   0  0  0  0  0  0  0  0  0  0  0  0
    2.8768   -0.8303    0.0000 C   0  0  0  0  0  0  0  0  0  0  0  0
    2.0884   -1.0735    0.0000 C   0  0  0  0  0  0  0  0  0  0  0  0
    1.4837   -0.5123    0.0000 C   0  0  0  0  0  0  0  0  0  0  0  0
    1.6673    0.2920    0.0000 C   0  0  0  0  0  0  0  0  0  0  0  0
    2.4556    0.5352    0.0000 C   0  0  0  0  0  0  0  0  0  0  0  0
    3.0604   -0.0260    0.0000 C   0  0  0  0  0  0  0  0  0  0  0  0
  1  2  1  0  0  0  0
  2  3  1  0  0  0  0
  2  4  1  0  0  0  0
  4  5  1  0  0  0  0
  6  5  1  4  0  0  0
  6  7  2  0  0  0  0
  7  8  1  0  0  0  0
  8  9  2  0  0  0  0
  9 10  1  0  0  0  0
 10 11  2  0  0  0  0
 11 12  1  0  0  0  0
 12 13  2  0  0  0  0
  8 13  1  0  0  0  0
 13 14  1  0  0  0  0
 14 15  1  0  0  0  0
 15 16  1  0  0  0  0
 16 17  2  0  0  0  0
 17 18  1  0  0  0  0
 18 19  2  0  0  0  0
 19 20  1  0  0  0  0
 20 21  2  0  0  0  0
 16 21  1  0  0  0  0
  7 21  1  0  0  0  0
M  END
> <Molar mass [g/mol] [MProp:scalar:double]>
277.411

> <Exact mass [Da] [MProp:scalar:double]>
277.183049745

> <Formula>
C20H23N

> <Composition>
C (86.59%), H (8.36%), N (5.05%)

> <Lipinski's rule of five [MProp:scalar:boolean]>
true

> <Atom count [MProp:scalar:integer]>
44

> <Heavy atom count [MProp:scalar:integer]>
21

> <Asymmetric atom count [MProp:scalar:integer]>
0

> <Rotatable bond count [MProp:scalar:integer]>
3

> <Ring count [MProp:scalar:integer]>
3

> <Aromatic ring count [MProp:scalar:integer]>
2

> <Hetero ring count [MProp:scalar:integer]>
0

> <FSP3 [MProp:scalar:double]>
0.3

> <Hydrogen bond donor count [MProp:scalar:integer]>
0

> <Hydrogen bond acceptor count [MProp:scalar:integer]>
1

> <Formal charge [MProp:scalar:integer]>
0

> <Topological polar surface area [A^2] [MProp:scalar:double]>
3.24

> <Polarizability [A^3] [MProp:scalar:double]>
35.17

> <Molar refractivity [cm^3/mol] [MProp:scalar:double]>
101.51

> <Van der Waals volume [A^3] [MProp:scalar:double]>
282.76

> <Minimum projection area [A^2] [MProp:scalar:double]>
58.17

> <Maximum projection area [A^2] [MProp:scalar:double]>
88.96

> <Minimum projection radius [A] [MProp:scalar:double]>
5.72

> <Maximum projection radius [A] [MProp:scalar:double]>
6.99

> <Van der Waals surface area [A^2] [MProp:scalar:double]>
457.21

> <Solvent accessible surface area [A^2] [MProp:scalar:double]>
529.69

> <Strongest acidic pKa>
N/A

> <Strongest basic pKa [MProp:scalar:double]>
9.06

> <Isoelectric point>
N/A

> <Intrinsic solubility [logS] [MProp:scalar:double]>
-4.39

> <Solubility category>
Moderate

> <logP [MProp:scalar:double]>
4.81

> <logD_PH0 [MProp:scalar:double]>
1.31

> <logD_PH1 [MProp:scalar:double]>
1.31

> <logD_PH2 [MProp:scalar:double]>
1.31

> <logD_PH3 [MProp:scalar:double]>
1.31

> <logD_PH4 [MProp:scalar:double]>
1.32

> <logD_PH5 [MProp:scalar:double]>
1.41

> <logD_PH6 [MProp:scalar:double]>
1.88

> <logD_PH7 [MProp:scalar:double]>
2.76

> <logD_PH8 [MProp:scalar:double]>
3.71

> <logD_PH9 [MProp:scalar:double]>
4.48

> <logD_PH10 [MProp:scalar:double]>
4.76

> <logD_PH11 [MProp:scalar:double]>
4.8

> <logD_PH12 [MProp:scalar:double]>
4.81

> <logD_PH13 [MProp:scalar:double]>
4.81

> <logD_PH14 [MProp:scalar:double]>
4.81

> <HLB [MProp:scalar:double]>
7.79

> <IUPAC name>
dimethyl(3-{tricyclo[9.4.0.0³,⁸]pentadeca-1(15),3,5,7,11,13-hexaen-2-ylidene}propyl)amine

> <SMILES>
CN(C)CCC=C1C2=CC=CC=C2CCC2=CC=CC=C12

> <InChI>
InChI=1S/C20H23N/c1-21(2)15-7-12-20-18-10-5-3-8-16(18)13-14-17-9-4-6-11-19(17)20/h3-6,8-12H,7,13-15H2,1-2H3

> <InChIKey>
KRMDCWKBEZIMAB-UHFFFAOYSA-N

> <Traditional name>
amitriptyline

> <Common names>
adepress; adepril; amineurin; amitid; amitril; amitrip; amitriprolidine; amitriptilina; amitriptylin; amitriptylin desitin; amitriptylin neuraxpharm; amitriptylin rph; amitriptylin β; amitriptylin-neuraxpharm; amitriptyline; amitriptyline (inn) and its salts; amitriptyline (product); amitriptyline (substance); amitriptyline preparation; amitriptylinneuraxpharm; amitriptylinum; amitrol; amitryptiline; amitryptyline; amytriptiline; amytriptylin; anapsique; apo amitriptyline; apoamitriptyline; cahill may roberts brand of amitriptyline embonate; damilan; damilen; damilen maleate; damitriptyline; desitin, amitriptylin; domical; elanil; flavyl; hexathane; horizon; lantron; laroxil; laroxyl; lentizol; novoprotect; proheptadiene; redomex; rph, amitriptylin; saroten; sarotex; seroten; sylvemid; syneudon; triptafen; triptanol; triptilin; triptisol; tryptanol; tryptine; tryptizol; β, amitriptylin; 阿米替林

> <CAS Registry Numbers(R)>
50-48-6

$$$$
Amphetamine
  Mrv2222 01232613222D          

 10 10  0  0  0  0            999 V2000
    0.0000    3.3000    0.0000 C   0  0  0  0  0  0  0  0  0  0  0  0
    0.0000    2.4750    0.0000 C   0  0  0  0  0  0  0  0  0  0  0  0
    0.7145    2.0625    0.0000 C   0  0  0  0  0  0  0  0  0  0  0  0
    0.7145    1.2375    0.0000 C   0  0  0  0  0  0  0  0  0  0  0  0
    1.4289    0.8250    0.0000 C   0  0  0  0  0  0  0  0  0  0  0  0
    1.4289    0.0000    0.0000 C   0  0  0  0  0  0  0  0  0  0  0  0
    0.7145   -0.4125    0.0000 C   0  0  0  0  0  0  0  0  0  0  0  0
    0.0000    0.0000    0.0000 C   0  0  0  0  0  0  0  0  0  0  0  0
    0.0000    0.8250    0.0000 C   0  0  0  0  0  0  0  0  0  0  0  0
   -0.7145    2.0625    0.0000 N   0  0  0  0  0  0  0  0  0  0  0  0
  1  2  1  0  0  0  0
  2  3  1  0  0  0  0
  3  4  1  0  0  0  0
  4  5  2  0  0  0  0
  5  6  1  0  0  0  0
  6  7  2  0  0  0  0
  7  8  1  0  0  0  0
  8  9  2  0  0  0  0
  4  9  1  0  0  0  0
  2 10  1  0  0  0  0
M  END
> <Molar mass [g/mol] [MProp:scalar:double]>
135.21

> <Exact mass [Da] [MProp:scalar:double]>
135.104799423

> <Formula>
C9H13N

> <Composition>
C (79.95%), H (9.69%), N (10.36%)

> <Lipinski's rule of five [MProp:scalar:boolean]>
true

> <Atom count [MProp:scalar:integer]>
23

> <Heavy atom count [MProp:scalar:integer]>
10

> <Asymmetric atom count [MProp:scalar:integer]>
1

> <Rotatable bond count [MProp:scalar:integer]>
2

> <Ring count [MProp:scalar:integer]>
1

> <Aromatic ring count [MProp:scalar:integer]>
1

> <Hetero ring count [MProp:scalar:integer]>
0

> <FSP3 [MProp:scalar:double]>
0.33

> <Hydrogen bond donor count [MProp:scalar:integer]>
1

> <Hydrogen bond acceptor count [MProp:scalar:integer]>
1

> <Formal charge [MProp:scalar:integer]>
0

> <Topological polar surface area [A^2] [MProp:scalar:double]>
26.02

> <Polarizability [A^3] [MProp:scalar:double]>
17.36

> <Molar refractivity [cm^3/mol] [MProp:scalar:double]>
43.71

> <Van der Waals volume [A^3] [MProp:scalar:double]>
144.89

> <Minimum projection area [A^2] [MProp:scalar:double]>
28.16

> <Maximum projection area [A^2] [MProp:scalar:double]>
49.22

> <Minimum projection radius [A] [MProp:scalar:double]>
3.58

> <Maximum projection radius [A] [MProp:scalar:double]>
5.22

> <Van der Waals surface area [A^2] [MProp:scalar:double]>
241.04

> <Solvent accessible surface area [A^2] [MProp:scalar:double]>
318.68

> <Strongest acidic pKa>
N/A

> <Strongest basic pKa [MProp:scalar:double]>
10.04

> <Isoelectric point>
N/A

> <Intrinsic solubility [logS] [MProp:scalar:double]>
-1.4

> <Solubility category>
High

> <logP [MProp:scalar:double]>
1.8

> <logD_PH0 [MProp:scalar:double]>
-1.23

> <logD_PH1 [MProp:scalar:double]>
-1.23

> <logD_PH2 [MProp:scalar:double]>
-1.23

> <logD_PH3 [MProp:scalar:double]>
-1.23

> <logD_PH4 [MProp:scalar:double]>
-1.23

> <logD_PH5 [MProp:scalar:double]>
-1.22

> <logD_PH6 [MProp:scalar:double]>
-1.19

> <logD_PH7 [MProp:scalar:double]>
-0.93

> <logD_PH8 [MProp:scalar:double]>
-0.2

> <logD_PH9 [MProp:scalar:double]>
0.73

> <logD_PH10 [MProp:scalar:double]>
1.48

> <logD_PH11 [MProp:scalar:double]>
1.76

> <logD_PH12 [MProp:scalar:double]>
1.8

> <logD_PH13 [MProp:scalar:double]>
1.8

> <logD_PH14 [MProp:scalar:double]>
1.8

> <HLB [MProp:scalar:double]>
9.7

> <IUPAC name>
1-phenylpropan-2-amine

> <SMILES>
CC(N)CC1=CC=CC=C1

> <InChI>
InChI=1/C9H13N/c1-8(10)7-9-5-3-2-4-6-9/h2-6,8H,7,10H2,1H3

> <InChIKey>
KWTSXDURSIMDCE-UHFFFAOYNA-N

> <Traditional name>
amphetamine

> <Common names>
adderall; amfetaminum; desoxynorephedrine

> <CAS Registry Numbers(R)>
300-62-9, 60-15-1

$$$$
Aniline
  Mrv2222 01232613222D          

  7  7  0  0  0  0            999 V2000
    0.7145   -0.4125    0.0000 C   0  0  0  0  0  0  0  0  0  0  0  0
    0.0000    0.0000    0.0000 C   0  0  0  0  0  0  0  0  0  0  0  0
    0.0000    0.8250    0.0000 C   0  0  0  0  0  0  0  0  0  0  0  0
    0.7145    1.2375    0.0000 C   0  0  0  0  0  0  0  0  0  0  0  0
    1.4289    0.8250    0.0000 C   0  0  0  0  0  0  0  0  0  0  0  0
    1.4289    0.0000    0.0000 C   0  0  0  0  0  0  0  0  0  0  0  0
    0.7145    2.0625    0.0000 N   0  0  0  0  0  0  0  0  0  0  0  0
  1  2  2  0  0  0  0
  2  3  1  0  0  0  0
  3  4  2  0  0  0  0
  4  5  1  0  0  0  0
  5  6  2  0  0  0  0
  1  6  1  0  0  0  0
  4  7  1  0  0  0  0
M  END
> <Molar mass [g/mol] [MProp:scalar:double]>
93.129

> <Exact mass [Da] [MProp:scalar:double]>
93.057849229

> <Formula>
C6H7N

> <Composition>
C (77.38%), H (7.58%), N (15.04%)

> <Lipinski's rule of five [MProp:scalar:boolean]>
true

> <Atom count [MProp:scalar:integer]>
14

> <Heavy atom count [MProp:scalar:integer]>
7

> <Asymmetric atom count [MProp:scalar:integer]>
0

> <Rotatable bond count [MProp:scalar:integer]>
0

> <Ring count [MProp:scalar:integer]>
1

> <Aromatic ring count [MProp:scalar:integer]>
1

> <Hetero ring count [MProp:scalar:integer]>
0

> <FSP3 [MProp:scalar:double]>
0.0

> <Hydrogen bond donor count [MProp:scalar:integer]>
1

> <Hydrogen bond acceptor count [MProp:scalar:integer]>
1

> <Formal charge [MProp:scalar:integer]>
0

> <Topological polar surface area [A^2] [MProp:scalar:double]>
26.02

> <Polarizability [A^3] [MProp:scalar:double]>
11.5

> <Molar refractivity [cm^3/mol] [MProp:scalar:double]>
30.76

> <Van der Waals volume [A^3] [MProp:scalar:double]>
93.01

> <Minimum projection area [A^2] [MProp:scalar:double]>
19.19

> <Maximum projection area [A^2] [MProp:scalar:double]>
38.78

> <Minimum projection radius [A] [MProp:scalar:double]>
3.4

> <Maximum projection radius [A] [MProp:scalar:double]>
4.06

> <Van der Waals surface area [A^2] [MProp:scalar:double]>
150.69

> <Solvent accessible surface area [A^2] [MProp:scalar:double]>
250.93

> <Strongest acidic pKa>
N/A

> <Strongest basic pKa [MProp:scalar:double]>
4.64

> <Isoelectric point>
N/A

> <Intrinsic solubility [logS] [MProp:scalar:double]>
-1.13

> <Solubility category>
High

> <logP [MProp:scalar:double]>
1.14

> <logD_PH0 [MProp:scalar:double]>
-1.1

> <logD_PH1 [MProp:scalar:double]>
-1.08

> <logD_PH2 [MProp:scalar:double]>
-0.96

> <logD_PH3 [MProp:scalar:double]>
-0.41

> <logD_PH4 [MProp:scalar:double]>
0.42

> <logD_PH5 [MProp:scalar:double]>
0.99

> <logD_PH6 [MProp:scalar:double]>
1.13

> <logD_PH7 [MProp:scalar:double]>
1.14

> <logD_PH8 [MProp:scalar:double]>
1.14

> <logD_PH9 [MProp:scalar:double]>
1.14

> <logD_PH10 [MProp:scalar:double]>
1.14

> <logD_PH11 [MProp:scalar:double]>
1.14

> <logD_PH12 [MProp:scalar:double]>
1.14

> <logD_PH13 [MProp:scalar:double]>
1.14

> <logD_PH14 [MProp:scalar:double]>
1.14

> <HLB [MProp:scalar:double]>
5.6

> <IUPAC name>
aniline

> <SMILES>
NC1=CC=CC=C1

> <InChI>
InChI=1S/C6H7N/c7-6-4-2-1-3-5-6/h1-5H,7H2

> <InChIKey>
PAYRUJLWNCNPSJ-UHFFFAOYSA-N

> <Traditional name>
aniline

> <Common names>
(13)C-labeled cpd aniline; (13)c-labeled cpd aniline; (14)C-labeled cpd aniline; (14)c-labeled cpd aniline; 15N-labeled cpd aniline; 15n-labeled cpd aniline; 2-(13)C-labeled cpd aniline; 2-(13)c-labeled cpd aniline; 3-(13)C-labeled cpd aniline; 3-(13)c-labeled cpd aniline; 3H-labeled cpd aniline; 3h-labeled cpd aniline; 4-(13)C-labeled cpd aniline; 4-(13)c-labeled cpd aniline; C.I. oxidation base 1; CI oxidation base 1; D'aniline; aminophen; anilina; aniline (substance); aniline hydrogen iodide; aniline oil; aniline oil, phenylamine; aniline reagent; aniline(S#299)-liq; aniline, (13)C-labeled cpd; aniline, (13)c-labeled cpd; aniline, (14)C-labeled cpd; aniline, (14)c-labeled cpd; aniline, 15N-labeled cpd; aniline, 15n-labeled cpd; aniline, 2-(13)C-labeled cpd; aniline, 2-(13)c-labeled cpd; aniline, 3-(13)C-labeled cpd; aniline, 3-(13)c-labeled cpd; aniline, 3H-labeled cpd; aniline, 3h-labeled cpd; aniline, 4-(13)C-labeled cpd; aniline, 4-(13)c-labeled cpd; aniline, acs; aniline, conjugate acid; aniline, ion(1+); aniline, magnesium (1:1) salt; anilinum; anyvim; aromatic amine; arylamine; benzene,amino (aniline); benzidam; bidd:ER0581; blue oil; caswell no. 051C; ccris 44; conjugate acid aniline; cyanol; epa pesticide chemical code 251400; hsdb 43; huile d'aniline; ion(1+) aniline; krystallin; kyanol; magnesium (1:1) salt aniline; monolithium salt aniline; nchembio.257-comp9; phenyleneamine; rcra waste no. U012; rcra waste number U012; sodium salt aniline

> <CAS Registry Numbers(R)>
62-53-3, 136260-71-4

$$$$
Atenolol
  Mrv2222 01232613222D          

 19 19  0  0  0  0            999 V2000
    0.7145   -3.7125    0.0000 C   0  0  0  0  0  0  0  0  0  0  0  0
    1.4289   -4.1250    0.0000 C   0  0  0  0  0  0  0  0  0  0  0  0
    1.4289   -4.9500    0.0000 C   0  0  0  0  0  0  0  0  0  0  0  0
    2.1434   -3.7125    0.0000 N   0  0  0  0  0  0  0  0  0  0  0  0
    2.8579   -4.1250    0.0000 C   0  0  0  0  0  0  0  0  0  0  0  0
    3.5724   -3.7125    0.0000 C   0  0  0  0  0  0  0  0  0  0  0  0
    4.2868   -4.1250    0.0000 C   0  0  0  0  0  0  0  0  0  0  0  0
    5.0013   -3.7125    0.0000 O   0  0  0  0  0  0  0  0  0  0  0  0
    5.7158   -4.1250    0.0000 C   0  0  0  0  0  0  0  0  0  0  0  0
    6.4302   -3.7125    0.0000 C   0  0  0  0  0  0  0  0  0  0  0  0
    7.1447   -4.1250    0.0000 C   0  0  0  0  0  0  0  0  0  0  0  0
    7.1447   -4.9500    0.0000 C   0  0  0  0  0  0  0  0  0  0  0  0
    6.4302   -5.3625    0.0000 C   0  0  0  0  0  0  0  0  0  0  0  0
    5.7158   -4.9500    0.0000 C   0  0  0  0  0  0  0  0  0  0  0  0
    7.8592   -5.3625    0.0000 C   0  0  0  0  0  0  0  0  0  0  0  0
    7.8592   -6.1875    0.0000 C   0  0  0  0  0  0  0  0  0  0  0  0
    8.5737   -6.6000    0.0000 O   0  0  0  0  0  0  0  0  0  0  0  0
    7.1447   -6.6000    0.0000 N   0  0  0  0  0  0  0  0  0  0  0  0
    3.5724   -2.8875    0.0000 O   0  0  0  0  0  0  0  0  0  0  0  0
  1  2  1  0  0  0  0
  2  3  1  0  0  0  0
  2  4  1  0  0  0  0
  4  5  1  0  0  0  0
  5  6  1  0  0  0  0
  6  7  1  0  0  0  0
  7  8  1  0  0  0  0
  8  9  1  0  0  0  0
  9 10  2  0  0  0  0
 10 11  1  0  0  0  0
 11 12  2  0  0  0  0
 12 13  1  0  0  0  0
 13 14  2  0  0  0  0
  9 14  1  0  0  0  0
 12 15  1  0  0  0  0
 15 16  1  0  0  0  0
 16 17  2  0  0  0  0
 16 18  1  0  0  0  0
  6 19  1  0  0  0  0
M  END
> <Molar mass [g/mol] [MProp:scalar:double]>
266.341

> <Exact mass [Da] [MProp:scalar:double]>
266.163042576

> <Formula>
C14H22N2O3

> <Composition>
C (63.13%), H (8.33%), N (10.52%), O (18.02%)

> <Lipinski's rule of five [MProp:scalar:boolean]>
true

> <Atom count [MProp:scalar:integer]>
41

> <Heavy atom count [MProp:scalar:integer]>
19

> <Asymmetric atom count [MProp:scalar:integer]>
1

> <Rotatable bond count [MProp:scalar:integer]>
8

> <Ring count [MProp:scalar:integer]>
1

> <Aromatic ring count [MProp:scalar:integer]>
1

> <Hetero ring count [MProp:scalar:integer]>
0

> <FSP3 [MProp:scalar:double]>
0.5

> <Hydrogen bond donor count [MProp:scalar:integer]>
3

> <Hydrogen bond acceptor count [MProp:scalar:integer]>
4

> <Formal charge [MProp:scalar:integer]>
0

> <Topological polar surface area [A^2] [MProp:scalar:double]>
84.58

> <Polarizability [A^3] [MProp:scalar:double]>
29.09

> <Molar refractivity [cm^3/mol] [MProp:scalar:double]>
73.51

> <Van der Waals volume [A^3] [MProp:scalar:double]>
261.31

> <Minimum projection area [A^2] [MProp:scalar:double]>
33.82

> <Maximum projection area [A^2] [MProp:scalar:double]>
83.61

> <Minimum projection radius [A] [MProp:scalar:double]>
3.71

> <Maximum projection radius [A] [MProp:scalar:double]>
9.1

> <Van der Waals surface area [A^2] [MProp:scalar:double]>
440.26

> <Solvent accessible surface area [A^2] [MProp:scalar:double]>
535.74

> <Strongest acidic pKa [MProp:scalar:double]>
14.08

> <Strongest basic pKa [MProp:scalar:double]>
9.27

> <Isoelectric point [MProp:scalar:double]>
11.67

> <Intrinsic solubility [logS] [MProp:scalar:double]>
-1.57

> <Solubility category>
High

> <logP [MProp:scalar:double]>
0.43

> <logD_PH0 [MProp:scalar:double]>
-3.53

> <logD_PH1 [MProp:scalar:double]>
-2.97

> <logD_PH2 [MProp:scalar:double]>
-2.83

> <logD_PH3 [MProp:scalar:double]>
-2.82

> <logD_PH4 [MProp:scalar:double]>
-2.81

> <logD_PH5 [MProp:scalar:double]>
-2.78

> <logD_PH6 [MProp:scalar:double]>
-2.53

> <logD_PH7 [MProp:scalar:double]>
-1.8

> <logD_PH8 [MProp:scalar:double]>
-0.86

> <logD_PH9 [MProp:scalar:double]>
-0.03

> <logD_PH10 [MProp:scalar:double]>
0.35

> <logD_PH11 [MProp:scalar:double]>
0.42

> <logD_PH12 [MProp:scalar:double]>
0.42

> <logD_PH13 [MProp:scalar:double]>
0.39

> <logD_PH14 [MProp:scalar:double]>
0.17

> <HLB [MProp:scalar:double]>
19.15

> <IUPAC name>
2-(4-{2-hydroxy-3-[(propan-2-yl)amino]propoxy}phenyl)acetamide

> <SMILES>
CC(C)NCC(O)COC1=CC=C(CC(N)=O)C=C1

> <InChI>
InChI=1/C14H22N2O3/c1-10(2)16-8-12(17)9-19-13-5-3-11(4-6-13)7-14(15)18/h3-6,10,12,16-17H,7-9H2,1-2H3,(H2,15,18)

> <InChIKey>
METKIMKYRPQLGS-UHFFFAOYNA-N

> <Traditional name>
atenolol

> <Common names>
aircrit; alinor; altol; anselol; antipressan; apo-atenolol; atcardil; atecard; atehexal; atenblock; atendol; atenet; ateni; atenil; atenol; atenol 1A pharma; atenol AL; atenol CT; atenol NM pharma; atenol PB; atenol acis; atenol atid; atenol cophar; atenol ct; atenol fecofar; atenol gador; atenol genericon; atenol gnr; atenol heumann; atenol msd; atenol nordic; atenol quesada; atenol stada; atenol tika; atenol trom; atenol von CT; atenol von ct; atenol-mepha; atenol-ratiopharm; atenol-wolff; atenolin; atenolol; atenolol (product); atenolol (substance); atenolol preparation; atenololum; atenomel; atereal; aterol; betablok; betacard; betasyn; betatop GE; betatop ge; blocotenol; blokium; cardaxen; cardiopress; corotenol; cuxanorm; duraatenolol; duratenol; evitocor; farnormin; felo-bits; hipres; hypoten; ibinolo; internolol; jenatenol; juvental; lo-ten; loten; lotenal; myocord; normalol; normiten; noten; oraday; ormidol; panapres; plenacor; premorine; prenormine; prinorm; scheinpharm atenol; seles β; selobloc; serten; servitenol; stermin; tenidon; teno-basan; tenobloc; tenoblock; tenolol; tenoprin; tenormin; tenormine; tensimin; tredol; unibloc; uniloc; vascoten; vericordin; wesipin; xaten; 阿替洛尔

> <CAS Registry Numbers(R)>
29122-68-7, 60966-51-0, 1309283-25-7, 106020-65-9

$$$$
Atrazine
  Mrv2222 01232613222D          

 14 14  0  0  0  0            999 V2000
    0.0000    3.3000    0.0000 C    0  0  0  0  0  0  0  0  0  0  0  0
    0.0000    2.4750    0.0000 C    0  0  0  0  0  0  0  0  0  0  0  0
    0.7145    2.0625    0.0000 N    0  0  0  0  0  0  0  0  0  0  0  0
    0.7145    1.2375    0.0000 C    0  0  0  0  0  0  0  0  0  0  0  0
    1.4289    0.8250    0.0000 N    0  0  0  0  0  0  0  0  0  0  0  0
    1.4289    0.0000    0.0000 C    0  0  0  0  0  0  0  0  0  0  0  0
    0.7145   -0.4125    0.0000 N    0  0  0  0  0  0  0  0  0  0  0  0
    0.0000    0.0000    0.0000 C    0  0  0  0  0  0  0  0  0  0  0  0
    0.0000    0.8250    0.0000 N    0  0  0  0  0  0  0  0  0  0  0  0
   -0.7145   -0.4125    0.0000 Cl   0  0  0  0  0  0  0  0  0  0  0  0
    2.1434   -0.4125    0.0000 N    0  0  0  0  0  0  0  0  0  0  0  0
    2.1434   -1.2375    0.0000 C    0  0  0  0  0  0  0  0  0  0  0  0
    2.8579   -1.6500    0.0000 C    0  0  0  0  0  0  0  0  0  0  0  0
    1.4289   -1.6500    0.0000 C    0  0  0  0  0  0  0  0  0  0  0  0
  1  2  1  0  0  0  0
  2  3  1  0  0  0  0
  3  4  1  0  0  0  0
  4  5  2  0  0  0  0
  5  6  1  0  0  0  0
  6  7  2  0  0  0  0
  7  8  1  0  0  0  0
  8  9  2  0  0  0  0
  4  9  1  0  0  0  0
  8 10  1  0  0  0  0
  6 11  1  0  0  0  0
 11 12  1  0  0  0  0
 12 13  1  0  0  0  0
 12 14  1  0  0  0  0
M  END
> <Molar mass [g/mol] [MProp:scalar:double]>
215.69

> <Exact mass [Da] [MProp:scalar:double]>
215.0937732

> <Formula>
C8H14ClN5

> <Composition>
C (44.55%), H (6.54%), Cl (16.44%), N (32.47%)

> <Lipinski's rule of five [MProp:scalar:boolean]>
true

> <Atom count [MProp:scalar:integer]>
28

> <Heavy atom count [MProp:scalar:integer]>
14

> <Asymmetric atom count [MProp:scalar:integer]>
0

> <Rotatable bond count [MProp:scalar:integer]>
4

> <Ring count [MProp:scalar:integer]>
1

> <Aromatic ring count [MProp:scalar:integer]>
1

> <Hetero ring count [MProp:scalar:integer]>
1

> <FSP3 [MProp:scalar:double]>
0.62

> <Hydrogen bond donor count [MProp:scalar:integer]>
2

> <Hydrogen bond acceptor count [MProp:scalar:integer]>
5

> <Formal charge [MProp:scalar:integer]>
0

> <Topological polar surface area [A^2] [MProp:scalar:double]>
62.73

> <Polarizability [A^3] [MProp:scalar:double]>
21.19

> <Molar refractivity [cm^3/mol] [MProp:scalar:double]>
62.22

> <Van der Waals volume [A^3] [MProp:scalar:double]>
190.94

> <Minimum projection area [A^2] [MProp:scalar:double]>
41.16

> <Maximum projection area [A^2] [MProp:scalar:double]>
66.03

> <Minimum projection radius [A] [MProp:scalar:double]>
4.81

> <Maximum projection radius [A] [MProp:scalar:double]>
6.38

> <Van der Waals surface area [A^2] [MProp:scalar:double]>
324.67

> <Solvent accessible surface area [A^2] [MProp:scalar:double]>
471.23

> <Strongest acidic pKa [MProp:scalar:double]>
14.48

> <Strongest basic pKa [MProp:scalar:double]>
4.2

> <Isoelectric point [MProp:scalar:double]>
9.23

> <Intrinsic solubility [logS] [MProp:scalar:double]>
-3.8

> <Solubility category>
Moderate

> <logP [MProp:scalar:double]>
2.2

> <logD_PH0 [MProp:scalar:double]>
0.24

> <logD_PH1 [MProp:scalar:double]>
0.26

> <logD_PH2 [MProp:scalar:double]>
0.43

> <logD_PH3 [MProp:scalar:double]>
1.04

> <logD_PH4 [MProp:scalar:double]>
1.79

> <logD_PH5 [MProp:scalar:double]>
2.13

> <logD_PH6 [MProp:scalar:double]>
2.19

> <logD_PH7 [MProp:scalar:double]>
2.2

> <logD_PH8 [MProp:scalar:double]>
2.2

> <logD_PH9 [MProp:scalar:double]>
2.2

> <logD_PH10 [MProp:scalar:double]>
2.2

> <logD_PH11 [MProp:scalar:double]>
2.2

> <logD_PH12 [MProp:scalar:double]>
2.2

> <logD_PH13 [MProp:scalar:double]>
2.18

> <logD_PH14 [MProp:scalar:double]>
2.08

> <HLB [MProp:scalar:double]>
7.28

> <IUPAC name>
6-chloro-N2-ethyl-N4-(propan-2-yl)-1,3,5-triazine-2,4-diamine

> <SMILES>
CCNC1=NC(NC(C)C)=NC(Cl)=N1

> <InChI>
InChI=1S/C8H14ClN5/c1-4-10-7-12-6(9)13-8(14-7)11-5(2)3/h5H,4H2,1-3H3,(H2,10,11,12,13,14)

> <InChIKey>
MXWJVTOOROXGIU-UHFFFAOYSA-N

> <Traditional name>
atrazine

> <Common names>
atrazine

> <CAS Registry Numbers(R)>
1912-24-9

$$$$
Bentazone
  Mrv2222 01232613222D          

 16 17  0  0  0  0            999 V2000
   -0.7145   -0.4125    0.0000 C   0  0  0  0  0  0  0  0  0  0  0  0
    0.0000    0.0000    0.0000 C   0  0  0  0  0  0  0  0  0  0  0  0
    0.0000    0.8250    0.0000 C   0  0  0  0  0  0  0  0  0  0  0  0
    0.7145   -0.4125    0.0000 N   0  0  0  0  0  0  0  0  0  0  0  0
    1.4289    0.0000    0.0000 C   0  0  0  0  0  0  0  0  0  0  0  0
    1.4289    0.8250    0.0000 O   0  0  0  0  0  0  0  0  0  0  0  0
    2.1434   -0.4125    0.0000 C   0  0  0  0  0  0  0  0  0  0  0  0
    2.8579    0.0000    0.0000 C   0  0  0  0  0  0  0  0  0  0  0  0
    3.5724   -0.4125    0.0000 C   0  0  0  0  0  0  0  0  0  0  0  0
    3.5724   -1.2375    0.0000 C   0  0  0  0  0  0  0  0  0  0  0  0
    2.8579   -1.6500    0.0000 C   0  0  0  0  0  0  0  0  0  0  0  0
    2.1434   -1.2375    0.0000 C   0  0  0  0  0  0  0  0  0  0  0  0
    1.4289   -1.6500    0.0000 N   0  0  0  0  0  0  0  0  0  0  0  0
    0.7145   -1.2375    0.0000 S   0  0  0  0  0  0  0  0  0  0  0  0
    0.2773   -1.9371    0.0000 O   0  0  0  0  0  0  0  0  0  0  0  0
   -0.1100   -1.2663    0.0000 O   0  0  0  0  0  0  0  0  0  0  0  0
  1  2  1  0  0  0  0
  2  3  1  0  0  0  0
  2  4  1  0  0  0  0
  4  5  1  0  0  0  0
  5  6  2  0  0  0  0
  5  7  1  0  0  0  0
  7  8  2  0  0  0  0
  8  9  1  0  0  0  0
  9 10  2  0  0  0  0
 10 11  1  0  0  0  0
 11 12  2  0  0  0  0
  7 12  1  0  0  0  0
 12 13  1  0  0  0  0
 13 14  1  0  0  0  0
  4 14  1  0  0  0  0
 14 15  2  0  0  0  0
 14 16  2  0  0  0  0
M  END
> <Molar mass [g/mol] [MProp:scalar:double]>
240.28

> <Exact mass [Da] [MProp:scalar:double]>
240.056863428

> <Formula>
C10H12N2O3S

> <Composition>
C (49.99%), H (5.03%), N (11.66%), O (19.98%), S (13.34%)

> <Lipinski's rule of five [MProp:scalar:boolean]>
true

> <Atom count [MProp:scalar:integer]>
28

> <Heavy atom count [MProp:scalar:integer]>
16

> <Asymmetric atom count [MProp:scalar:integer]>
0

> <Rotatable bond count [MProp:scalar:integer]>
1

> <Ring count [MProp:scalar:integer]>
2

> <Aromatic ring count [MProp:scalar:integer]>
1

> <Hetero ring count [MProp:scalar:integer]>
1

> <FSP3 [MProp:scalar:double]>
0.3

> <Hydrogen bond donor count [MProp:scalar:integer]>
1

> <Hydrogen bond acceptor count [MProp:scalar:integer]>
3

> <Formal charge [MProp:scalar:integer]>
0

> <Topological polar surface area [A^2] [MProp:scalar:double]>
66.48

> <Polarizability [A^3] [MProp:scalar:double]>
23.3

> <Molar refractivity [cm^3/mol] [MProp:scalar:double]>
59.76

> <Van der Waals volume [A^3] [MProp:scalar:double]>
200.41

> <Minimum projection area [A^2] [MProp:scalar:double]>
37.46

> <Maximum projection area [A^2] [MProp:scalar:double]>
65.59

> <Minimum projection radius [A] [MProp:scalar:double]>
4.02

> <Maximum projection radius [A] [MProp:scalar:double]>
5.84

> <Van der Waals surface area [A^2] [MProp:scalar:double]>
329.13

> <Solvent accessible surface area [A^2] [MProp:scalar:double]>
408.53

> <Strongest acidic pKa [MProp:scalar:double]>
2.03

> <Strongest basic pKa>
N/A

> <Isoelectric point>
N/A

> <Intrinsic solubility [logS] [MProp:scalar:double]>
-2.41

> <Solubility category>
High

> <logP [MProp:scalar:double]>
0.76

> <logD_PH0 [MProp:scalar:double]>
0.71

> <logD_PH1 [MProp:scalar:double]>
0.69

> <logD_PH2 [MProp:scalar:double]>
0.49

> <logD_PH3 [MProp:scalar:double]>
0.05

> <logD_PH4 [MProp:scalar:double]>
-0.15

> <logD_PH5 [MProp:scalar:double]>
-0.18

> <logD_PH6 [MProp:scalar:double]>
-0.19

> <logD_PH7 [MProp:scalar:double]>
-0.19

> <logD_PH8 [MProp:scalar:double]>
-0.19

> <logD_PH9 [MProp:scalar:double]>
-0.19

> <logD_PH10 [MProp:scalar:double]>
-0.19

> <logD_PH11 [MProp:scalar:double]>
-0.19

> <logD_PH12 [MProp:scalar:double]>
-0.19

> <logD_PH13 [MProp:scalar:double]>
-0.19

> <logD_PH14 [MProp:scalar:double]>
-0.19

> <HLB [MProp:scalar:double]>
12.84

> <IUPAC name>
3-(propan-2-yl)-3,4-dihydro-1H-2λ⁶,1,3-benzothiadiazine-2,2,4-trione

> <SMILES>
CC(C)N1C(=O)C2=CC=CC=C2NS1(=O)=O

> <InChI>
InChI=1S/C10H12N2O3S/c1-7(2)12-10(13)8-5-3-4-6-9(8)11-16(12,14)15/h3-7,11H,1-2H3

> <InChIKey>
ZOMSMJKLGFBRBS-UHFFFAOYSA-N

> <Traditional name>
bentazon

> <Common names>
basagran; basagran 480; basagran DP; basagran KV; basagran M; basagran-plus; bendioxide; bentazon; bentazon (substance); bentazone; bentazone sodium; caswell no. 509C; epa pesticide chemical code 275200; graminon-plus; herbatox; laddok; leader; pentazone; pledge

> <CAS Registry Numbers(R)>
25057-89-0

$$$$
Benzophenone
  Mrv2222 01232613222D          

 14 15  0  0  0  0            999 V2000
    2.1434   -2.8875    0.0000 C   0  0  0  0  0  0  0  0  0  0  0  0
    1.4289   -2.4750    0.0000 C   0  0  0  0  0  0  0  0  0  0  0  0
    1.4289   -1.6500    0.0000 C   0  0  0  0  0  0  0  0  0  0  0  0
    2.1434   -1.2375    0.0000 C   0  0  0  0  0  0  0  0  0  0  0  0
    2.8579   -1.6500    0.0000 C   0  0  0  0  0  0  0  0  0  0  0  0
    2.8579   -2.4750    0.0000 C   0  0  0  0  0  0  0  0  0  0  0  0
    2.1434   -0.4125    0.0000 C   0  0  0  0  0  0  0  0  0  0  0  0
    1.4289    0.0000    0.0000 O   0  0  0  0  0  0  0  0  0  0  0  0
    2.8579    0.0000    0.0000 C   0  0  0  0  0  0  0  0  0  0  0  0
    2.8579    0.8250    0.0000 C   0  0  0  0  0  0  0  0  0  0  0  0
    3.5724    1.2375    0.0000 C   0  0  0  0  0  0  0  0  0  0  0  0
    4.2868    0.8250    0.0000 C   0  0  0  0  0  0  0  0  0  0  0  0
    4.2868    0.0000    0.0000 C   0  0  0  0  0  0  0  0  0  0  0  0
    3.5724   -0.4125    0.0000 C   0  0  0  0  0  0  0  0  0  0  0  0
  1  2  2  0  0  0  0
  2  3  1  0  0  0  0
  3  4  2  0  0  0  0
  4  5  1  0  0  0  0
  5  6  2  0  0  0  0
  1  6  1  0  0  0  0
  4  7  1  0  0  0  0
  7  8  2  0  0  0  0
  7  9  1  0  0  0  0
  9 10  2  0  0  0  0
 10 11  1  0  0  0  0
 11 12  2  0  0  0  0
 12 13  1  0  0  0  0
 13 14  2  0  0  0  0
  9 14  1  0  0  0  0
M  END
> <Molar mass [g/mol] [MProp:scalar:double]>
182.222

> <Exact mass [Da] [MProp:scalar:double]>
182.073164942

> <Formula>
C13H10O

> <Composition>
C (85.69%), H (5.53%), O (8.78%)

> <Lipinski's rule of five [MProp:scalar:boolean]>
true

> <Atom count [MProp:scalar:integer]>
24

> <Heavy atom count [MProp:scalar:integer]>
14

> <Asymmetric atom count [MProp:scalar:integer]>
0

> <Rotatable bond count [MProp:scalar:integer]>
2

> <Ring count [MProp:scalar:integer]>
2

> <Aromatic ring count [MProp:scalar:integer]>
2

> <Hetero ring count [MProp:scalar:integer]>
0

> <FSP3 [MProp:scalar:double]>
0.0

> <Hydrogen bond donor count [MProp:scalar:integer]>
0

> <Hydrogen bond acceptor count [MProp:scalar:integer]>
1

> <Formal charge [MProp:scalar:integer]>
0

> <Topological polar surface area [A^2] [MProp:scalar:double]>
17.07

> <Polarizability [A^3] [MProp:scalar:double]>
22.03

> <Molar refractivity [cm^3/mol] [MProp:scalar:double]>
56.63

> <Van der Waals volume [A^3] [MProp:scalar:double]>
172.56

> <Minimum projection area [A^2] [MProp:scalar:double]>
23.84

> <Maximum projection area [A^2] [MProp:scalar:double]>
68.93

> <Minimum projection radius [A] [MProp:scalar:double]>
3.88

> <Maximum projection radius [A] [MProp:scalar:double]>
6.27

> <Van der Waals surface area [A^2] [MProp:scalar:double]>
269.72

> <Solvent accessible surface area [A^2] [MProp:scalar:double]>
384.46

> <Strongest acidic pKa>
N/A

> <Strongest basic pKa>
N/A

> <Isoelectric point>
N/A

> <Intrinsic solubility [logS] [MProp:scalar:double]>
-3.73

> <Solubility category>
Moderate

> <logP [MProp:scalar:double]>
3.43

> <logD_PH0 [MProp:scalar:double]>
3.43

> <logD_PH1 [MProp:scalar:double]>
3.43

> <logD_PH2 [MProp:scalar:double]>
3.43

> <logD_PH3 [MProp:scalar:double]>
3.43

> <logD_PH4 [MProp:scalar:double]>
3.43

> <logD_PH5 [MProp:scalar:double]>
3.43

> <logD_PH6 [MProp:scalar:double]>
3.43

> <logD_PH7 [MProp:scalar:double]>
3.43

> <logD_PH8 [MProp:scalar:double]>
3.43

> <logD_PH9 [MProp:scalar:double]>
3.43

> <logD_PH10 [MProp:scalar:double]>
3.43

> <logD_PH11 [MProp:scalar:double]>
3.43

> <logD_PH12 [MProp:scalar:double]>
3.43

> <logD_PH13 [MProp:scalar:double]>
3.43

> <logD_PH14 [MProp:scalar:double]>
3.43

> <HLB [MProp:scalar:double]>
3.41

> <IUPAC name>
diphenylmethanone

> <SMILES>
O=C(C1=CC=CC=C1)C1=CC=CC=C1

> <InChI>
InChI=1S/C13H10O/c14-13(11-7-3-1-4-8-11)12-9-5-2-6-10-12/h1-10H

> <InChIKey>
RWCCWEUUXYIKHB-UHFFFAOYSA-N

> <Traditional name>
benzophenone

> <Common names>
Ph2CO; benzophenone (substance); caswell no. 081G; ccris 629; diphenyl methanone; epa pesticide chemical code 000315; α-oxodiphenylmethane; α-oxoditane

> <CAS Registry Numbers(R)>
119-61-9

$$$$
1H-Benzotriazole
  Mrv2222 01232613222D          

  9 10  0  0  0  0            999 V2000
    2.0701    1.1104    0.0000 C   0  0  0  0  0  0  0  0  0  0  0  0
    1.3556    0.6979    0.0000 C   0  0  0  0  0  0  0  0  0  0  0  0
    0.6411    1.1104    0.0000 C   0  0  0  0  0  0  0  0  0  0  0  0
   -0.1435    0.8555    0.0000 N   0  0  0  0  0  0  0  0  0  0  0  0
   -0.6284    1.5229    0.0000 N   0  0  0  0  0  0  0  0  0  0  0  0
   -0.1435    2.1904    0.0000 N   0  0  0  0  0  0  0  0  0  0  0  0
    0.6411    1.9354    0.0000 C   0  0  0  0  0  0  0  0  0  0  0  0
    1.3556    2.3479    0.0000 C   0  0  0  0  0  0  0  0  0  0  0  0
    2.0701    1.9354    0.0000 C   0  0  0  0  0  0  0  0  0  0  0  0
  1  2  1  0  0  0  0
  2  3  2  0  0  0  0
  3  4  1  0  0  0  0
  4  5  1  0  0  0  0
  5  6  2  0  0  0  0
  6  7  1  0  0  0  0
  3  7  1  0  0  0  0
  7  8  2  0  0  0  0
  8  9  1  0  0  0  0
  1  9  2  0  0  0  0
M  END
> <Molar mass [g/mol] [MProp:scalar:double]>
119.127

> <Exact mass [Da] [MProp:scalar:double]>
119.048347173

> <Formula>
C6H5N3

> <Composition>
C (60.50%), H (4.23%), N (35.27%)

> <Lipinski's rule of five [MProp:scalar:boolean]>
true

> <Atom count [MProp:scalar:integer]>
14

> <Heavy atom count [MProp:scalar:integer]>
9

> <Asymmetric atom count [MProp:scalar:integer]>
0

> <Rotatable bond count [MProp:scalar:integer]>
0

> <Ring count [MProp:scalar:integer]>
2

> <Aromatic ring count [MProp:scalar:integer]>
2

> <Hetero ring count [MProp:scalar:integer]>
1

> <FSP3 [MProp:scalar:double]>
0.0

> <Hydrogen bond donor count [MProp:scalar:integer]>
1

> <Hydrogen bond acceptor count [MProp:scalar:integer]>
2

> <Formal charge [MProp:scalar:integer]>
0

> <Topological polar surface area [A^2] [MProp:scalar:double]>
41.57

> <Polarizability [A^3] [MProp:scalar:double]>
13.78

> <Molar refractivity [cm^3/mol] [MProp:scalar:double]>
34.06

> <Van der Waals volume [A^3] [MProp:scalar:double]>
100.05

> <Minimum projection area [A^2] [MProp:scalar:double]>
20.97

> <Maximum projection area [A^2] [MProp:scalar:double]>
41.23

> <Minimum projection radius [A] [MProp:scalar:double]>
3.52

> <Maximum projection radius [A] [MProp:scalar:double]>
4.12

> <Van der Waals surface area [A^2] [MProp:scalar:double]>
157.94

> <Solvent accessible surface area [A^2] [MProp:scalar:double]>
252.65

> <Strongest acidic pKa [MProp:scalar:double]>
8.63

> <Strongest basic pKa [MProp:scalar:double]>
0.58

> <Isoelectric point [MProp:scalar:double]>
4.6

> <Intrinsic solubility [logS] [MProp:scalar:double]>
-1.22

> <Solubility category>
High

> <logP [MProp:scalar:double]>
1.3

> <logD_PH0 [MProp:scalar:double]>
0.62

> <logD_PH1 [MProp:scalar:double]>
1.16

> <logD_PH2 [MProp:scalar:double]>
1.28

> <logD_PH3 [MProp:scalar:double]>
1.3

> <logD_PH4 [MProp:scalar:double]>
1.3

> <logD_PH5 [MProp:scalar:double]>
1.3

> <logD_PH6 [MProp:scalar:double]>
1.3

> <logD_PH7 [MProp:scalar:double]>
1.29

> <logD_PH8 [MProp:scalar:double]>
1.21

> <logD_PH9 [MProp:scalar:double]>
0.8

> <logD_PH10 [MProp:scalar:double]>
0.11

> <logD_PH11 [MProp:scalar:double]>
-0.24

> <logD_PH12 [MProp:scalar:double]>
-0.3

> <logD_PH13 [MProp:scalar:double]>
-0.31

> <logD_PH14 [MProp:scalar:double]>
-0.31

> <HLB [MProp:scalar:double]>
7.7

> <IUPAC name>
1H-1,2,3-benzotriazole

> <SMILES>
N1N=NC2=CC=CC=C12

> <InChI>
InChI=1S/C6H5N3/c1-2-4-6-5(3-1)7-9-8-6/h1-4H,(H,7,8,9)

> <InChIKey>
QRUDEWIWKLJBPS-UHFFFAOYSA-N

> <Traditional name>
benzotriazole

> <Common names>
N/A

> <CAS Registry Numbers(R)>
95-14-7, 273-02-9, 27556-51-0

$$$$
Benzoylecgonine
  Mrv2222 01232613222D          

 21 23  0  0  1  0            999 V2000
    2.1787   -0.2550    0.0000 C   0  0  0  0  0  0  0  0  0  0  0  0
    1.3941   -0.0001    0.0000 N   0  0  0  0  0  0  0  0  0  0  0  0
    1.1624    0.9268    0.0000 C   0  0  1  0  0  0  0  0  0  0  0  0
    0.5174    0.4124    0.0000 C   0  0  0  0  0  0  0  0  0  0  0  0
    0.5174   -0.4126    0.0000 C   0  0  0  0  0  0  0  0  0  0  0  0
    1.1624   -0.9270    0.0000 C   0  0  2  0  0  0  0  0  0  0  0  0
    1.9667   -0.7434    0.0000 C   0  0  2  0  0  0  0  0  0  0  0  0
    2.3247   -0.0001    0.0000 C   0  0  2  0  0  0  0  0  0  0  0  0
    1.9667    0.7432    0.0000 C   0  0  0  0  0  0  0  0  0  0  0  0
    3.1497   -0.0001    0.0000 O   0  0  0  0  0  0  0  0  0  0  0  0
    3.5622    0.7144    0.0000 C   0  0  0  0  0  0  0  0  0  0  0  0
    3.1497    1.4288    0.0000 O   0  0  0  0  0  0  0  0  0  0  0  0
    4.3872    0.7144    0.0000 C   0  0  0  0  0  0  0  0  0  0  0  0
    4.7997    1.4288    0.0000 C   0  0  0  0  0  0  0  0  0  0  0  0
    5.6247    1.4288    0.0000 C   0  0  0  0  0  0  0  0  0  0  0  0
    6.0372    0.7144    0.0000 C   0  0  0  0  0  0  0  0  0  0  0  0
    5.6247   -0.0001    0.0000 C   0  0  0  0  0  0  0  0  0  0  0  0
    4.7997   -0.0001    0.0000 C   0  0  0  0  0  0  0  0  0  0  0  0
    2.4811   -1.3884    0.0000 C   0  0  0  0  0  0  0  0  0  0  0  0
    3.2969   -1.2655    0.0000 O   0  0  0  0  0  0  0  0  0  0  0  0
    2.1797   -2.1564    0.0000 O   0  0  0  0  0  0  0  0  0  0  0  0
  1  2  1  0  0  0  0
  3  2  1  6  0  0  0
  3  4  1  0  0  0  0
  4  5  1  0  0  0  0
  6  5  1  0  0  0  0
  6  2  1  6  0  0  0
  7  6  1  0  0  0  0
  7  8  1  0  0  0  0
  8  9  1  0  0  0  0
  3  9  1  0  0  0  0
  8 10  1  6  0  0  0
 10 11  1  0  0  0  0
 11 12  2  0  0  0  0
 11 13  1  0  0  0  0
 13 14  2  0  0  0  0
 14 15  1  0  0  0  0
 15 16  2  0  0  0  0
 16 17  1  0  0  0  0
 17 18  2  0  0  0  0
 13 18  1  0  0  0  0
  7 19  1  6  0  0  0
 19 20  2  0  0  0  0
 19 21  1  0  0  0  0
M  END
> <Molar mass [g/mol] [MProp:scalar:double]>
289.331

> <Exact mass [Da] [MProp:scalar:double]>
289.131408096

> <Formula>
C16H19NO4

> <Composition>
C (66.42%), H (6.62%), N (4.84%), O (22.12%)

> <Lipinski's rule of five [MProp:scalar:boolean]>
true

> <Atom count [MProp:scalar:integer]>
40

> <Heavy atom count [MProp:scalar:integer]>
21

> <Asymmetric atom count [MProp:scalar:integer]>
4

> <Rotatable bond count [MProp:scalar:integer]>
4

> <Ring count [MProp:scalar:integer]>
3

> <Aromatic ring count [MProp:scalar:integer]>
1

> <Hetero ring count [MProp:scalar:integer]>
2

> <FSP3 [MProp:scalar:double]>
0.5

> <Hydrogen bond donor count [MProp:scalar:integer]>
1

> <Hydrogen bond acceptor count [MProp:scalar:integer]>
4

> <Formal charge [MProp:scalar:integer]>
0

> <Topological polar surface area [A^2] [MProp:scalar:double]>
66.84

> <Polarizability [A^3] [MProp:scalar:double]>
30.08

> <Molar refractivity [cm^3/mol] [MProp:scalar:double]>
76.39

> <Van der Waals volume [A^3] [MProp:scalar:double]>
264.87

> <Minimum projection area [A^2] [MProp:scalar:double]>
47.32

> <Maximum projection area [A^2] [MProp:scalar:double]>
77.99

> <Minimum projection radius [A] [MProp:scalar:double]>
4.78

> <Maximum projection radius [A] [MProp:scalar:double]>
7.16

> <Van der Waals surface area [A^2] [MProp:scalar:double]>
421.49

> <Solvent accessible surface area [A^2] [MProp:scalar:double]>
444.15

> <Strongest acidic pKa [MProp:scalar:double]>
3.15

> <Strongest basic pKa [MProp:scalar:double]>
9.14

> <Isoelectric point [MProp:scalar:double]>
6.29

> <Intrinsic solubility [logS] [MProp:scalar:double]>
-2.14

> <Solubility category>
High

> <logP [MProp:scalar:double]>
-0.59

> <logD_PH0 [MProp:scalar:double]>
-1.36

> <logD_PH1 [MProp:scalar:double]>
-1.35

> <logD_PH2 [MProp:scalar:double]>
-1.24

> <logD_PH3 [MProp:scalar:double]>
-0.88

> <logD_PH4 [MProp:scalar:double]>
-0.64

> <logD_PH5 [MProp:scalar:double]>
-0.6

> <logD_PH6 [MProp:scalar:double]>
-0.59

> <logD_PH7 [MProp:scalar:double]>
-0.6

> <logD_PH8 [MProp:scalar:double]>
-0.62

> <logD_PH9 [MProp:scalar:double]>
-0.78

> <logD_PH10 [MProp:scalar:double]>
-1.18

> <logD_PH11 [MProp:scalar:double]>
-1.36

> <logD_PH12 [MProp:scalar:double]>
-1.39

> <logD_PH13 [MProp:scalar:double]>
-1.39

> <logD_PH14 [MProp:scalar:double]>
-1.39

> <HLB [MProp:scalar:double]>
13.6

> <IUPAC name>
(1R,2R,3S,5S)-3-(benzoyloxy)-8-methyl-8-azabicyclo[3.2.1]octane-2-carboxylic acid

> <SMILES>
CN1[C@H]2CC[C@@H]1[C@H]([C@H](C2)OC(=O)C1=CC=CC=C1)C(O)=O

> <InChI>
InChI=1S/C16H19NO4/c1-17-11-7-8-12(17)14(15(18)19)13(9-11)21-16(20)10-5-3-2-4-6-10/h2-6,11-14H,7-9H2,1H3,(H,18,19)/t11-,12-,13-,14+/m0/s1

> <InChIKey>
GVGYEFKIHJTNQZ-RFQIPJPRSA-N

> <Traditional name>
benzoylecgonine

> <Common names>
(-)-benzoylecgonine; BCG; BEG; O-benzoyl-(-)-ecgonine; O-benzoylecgonine; benzoylecgonine; benzoylecgonine hydrate; benzoylecgonine solution; benzoylecogonine; ecgonine benzoate

> <CAS Registry Numbers(R)>
519-09-5

$$$$
Caffeine
  Mrv2222 01232613222D          

 14 15  0  0  0  0            999 V2000
   -0.3984    0.7541    0.0000 C   0  0  0  0  0  0  0  0  0  0  0  0
   -0.1435   -0.0305    0.0000 N   0  0  0  0  0  0  0  0  0  0  0  0
   -0.6284   -0.6979    0.0000 C   0  0  0  0  0  0  0  0  0  0  0  0
   -0.1435   -1.3654    0.0000 N   0  0  0  0  0  0  0  0  0  0  0  0
    0.6411   -1.1104    0.0000 C   0  0  0  0  0  0  0  0  0  0  0  0
    0.6411   -0.2854    0.0000 C   0  0  0  0  0  0  0  0  0  0  0  0
    1.3556    0.1271    0.0000 C   0  0  0  0  0  0  0  0  0  0  0  0
    1.3556    0.9521    0.0000 O   0  0  0  0  0  0  0  0  0  0  0  0
    2.0701   -0.2854    0.0000 N   0  0  0  0  0  0  0  0  0  0  0  0
    2.0701   -1.1104    0.0000 C   0  0  0  0  0  0  0  0  0  0  0  0
    2.7845   -1.5229    0.0000 O   0  0  0  0  0  0  0  0  0  0  0  0
    1.3556   -1.5229    0.0000 N   0  0  0  0  0  0  0  0  0  0  0  0
    1.3556   -2.3479    0.0000 C   0  0  0  0  0  0  0  0  0  0  0  0
    2.7845    0.1271    0.0000 C   0  0  0  0  0  0  0  0  0  0  0  0
  1  2  1  0  0  0  0
  2  3  1  0  0  0  0
  3  4  2  0  0  0  0
  4  5  1  0  0  0  0
  5  6  2  0  0  0  0
  2  6  1  0  0  0  0
  6  7  1  0  0  0  0
  7  8  2  0  0  0  0
  7  9  1  0  0  0  0
  9 10  1  0  0  0  0
 10 11  2  0  0  0  0
 10 12  1  0  0  0  0
  5 12  1  0  0  0  0
 12 13  1  0  0  0  0
  9 14  1  0  0  0  0
M  END
> <Molar mass [g/mol] [MProp:scalar:double]>
194.194

> <Exact mass [Da] [MProp:scalar:double]>
194.080375578

> <Formula>
C8H10N4O2

> <Composition>
C (49.48%), H (5.19%), N (28.85%), O (16.48%)

> <Lipinski's rule of five [MProp:scalar:boolean]>
true

> <Atom count [MProp:scalar:integer]>
24

> <Heavy atom count [MProp:scalar:integer]>
14

> <Asymmetric atom count [MProp:scalar:integer]>
0

> <Rotatable bond count [MProp:scalar:integer]>
0

> <Ring count [MProp:scalar:integer]>
2

> <Aromatic ring count [MProp:scalar:integer]>
2

> <Hetero ring count [MProp:scalar:integer]>
2

> <FSP3 [MProp:scalar:double]>
0.37

> <Hydrogen bond donor count [MProp:scalar:integer]>
0

> <Hydrogen bond acceptor count [MProp:scalar:integer]>
3

> <Formal charge [MProp:scalar:integer]>
0

> <Topological polar surface area [A^2] [MProp:scalar:double]>
58.44

> <Polarizability [A^3] [MProp:scalar:double]>
17.86

> <Molar refractivity [cm^3/mol] [MProp:scalar:double]>
49.83

> <Van der Waals volume [A^3] [MProp:scalar:double]>
164.27

> <Minimum projection area [A^2] [MProp:scalar:double]>
29.63

> <Maximum projection area [A^2] [MProp:scalar:double]>
61.58

> <Minimum projection radius [A] [MProp:scalar:double]>
4.42

> <Maximum projection radius [A] [MProp:scalar:double]>
4.99

> <Van der Waals surface area [A^2] [MProp:scalar:double]>
269.12

> <Solvent accessible surface area [A^2] [MProp:scalar:double]>
368.37

> <Strongest acidic pKa>
N/A

> <Strongest basic pKa [MProp:scalar:double]>
-1.16

> <Isoelectric point>
N/A

> <Intrinsic solubility [logS] [MProp:scalar:double]>
-0.44

> <Solubility category>
High

> <logP [MProp:scalar:double]>
-0.55

> <logD_PH0 [MProp:scalar:double]>
-0.57

> <logD_PH1 [MProp:scalar:double]>
-0.55

> <logD_PH2 [MProp:scalar:double]>
-0.55

> <logD_PH3 [MProp:scalar:double]>
-0.55

> <logD_PH4 [MProp:scalar:double]>
-0.55

> <logD_PH5 [MProp:scalar:double]>
-0.55

> <logD_PH6 [MProp:scalar:double]>
-0.55

> <logD_PH7 [MProp:scalar:double]>
-0.55

> <logD_PH8 [MProp:scalar:double]>
-0.55

> <logD_PH9 [MProp:scalar:double]>
-0.55

> <logD_PH10 [MProp:scalar:double]>
-0.55

> <logD_PH11 [MProp:scalar:double]>
-0.55

> <logD_PH12 [MProp:scalar:double]>
-0.55

> <logD_PH13 [MProp:scalar:double]>
-0.55

> <logD_PH14 [MProp:scalar:double]>
-0.55

> <HLB [MProp:scalar:double]>
12.1

> <IUPAC name>
1,3,7-trimethyl-2,3,6,7-tetrahydro-1H-purine-2,6-dione

> <SMILES>
CN1C=NC2=C1C(=O)N(C)C(=O)N2C

> <InChI>
InChI=1S/C8H10N4O2/c1-10-4-9-6-5(10)7(13)12(3)8(14)11(6)2/h4H,1-3H3

> <InChIKey>
RYYVLZVUVIJVGH-UHFFFAOYSA-N

> <Traditional name>
caffeine

> <Common names>
CFF; NO-doz; Refresh'N; SK 65 compound; Stim; alert-pep; anhydrous caffeine; anoquan; cafamil; cafcit; cafecon; cafeina; cafeine; cafergot; caffedrine; caffedrine caplets; caffeina; caffeine (data page); caffeine (natural); caffeine (product); caffeine (substance); caffeine preparation; caffeine pure; caffeine, anhydrous; caffeine, citrated; caffeine, monohydrate; caffeine, synthetic; caffine; cafipel; coffein; coffeine; coffeinum N; coffeinum purrum; darvon compound; darvon compound-65; dasin; dexitac; dexitac stay alert stimulant; dhc plus; diurex; durvitan; eldiatric C; enerjets; ercatab; esgic; esgic-plus; femcet; fioricet; fiorinal; glaxosmithkline brand of caffeine; guaranine; hsdb 36; hycomine; invagesic; invagesic forte; keep alert; kofein; koffein; lanorinal; mateina; maximum strength snapback stimulant powders; medigesic plus; merck dura brand of caffeine; methyltheobromide; methyltheobromine; methylxanthine theophylline; migergot; miudol; monomethyl derivative of theophylline; natural caffeinum; nix nap; no-doz; nodaca; nodoz maximum strength caplets; norgesic; norgesic forte; organex; orphengesic; orphengesic forte; passauer brand of caffeine; pep-back; percoffedrinol N; percutafine; percutaféine; phensal; pierre fabre brand of caffeine; propoxyphene compound 65; propoxyphene compound-65; quick pep; quick-pep; refresh'n; republic drug brand of caffeine; seid brand of caffeine; synalgos-dc; synthetic caffeine; teina; thein; theine; theobromine ME; theophylline ME; thompson brand 1 of caffeine; thompson brand 2 of caffeine; tirend; tri-aqua; triad; ultra pep-back; vivarin; wake-up; wigraine; 咖啡因

> <CAS Registry Numbers(R)>
58-08-2, 95789-13-2, 114303-55-8

$$$$
Carbamazepine
  Mrv2222 01232613222D          

 18 20  0  0  0  0            999 V2000
    6.1237    0.8510    0.0000 C   0  0  0  0  0  0  0  0  0  0  0  0
    5.9401    1.6553    0.0000 C   0  0  0  0  0  0  0  0  0  0  0  0
    5.1517    1.8985    0.0000 C   0  0  0  0  0  0  0  0  0  0  0  0
    4.5470    1.3373    0.0000 C   0  0  0  0  0  0  0  0  0  0  0  0
    4.7305    0.5330    0.0000 C   0  0  0  0  0  0  0  0  0  0  0  0
    5.5189    0.2898    0.0000 C   0  0  0  0  0  0  0  0  0  0  0  0
    4.2162   -0.1120    0.0000 C   0  0  0  0  0  0  0  0  0  0  0  0
    3.3912   -0.1120    0.0000 C   0  0  0  0  0  0  0  0  0  0  0  0
    2.8768    0.5330    0.0000 C   0  0  0  0  0  0  0  0  0  0  0  0
    2.0884    0.2898    0.0000 C   0  0  0  0  0  0  0  0  0  0  0  0
    1.4837    0.8510    0.0000 C   0  0  0  0  0  0  0  0  0  0  0  0
    1.6673    1.6553    0.0000 C   0  0  0  0  0  0  0  0  0  0  0  0
    2.4556    1.8985    0.0000 C   0  0  0  0  0  0  0  0  0  0  0  0
    3.0604    1.3373    0.0000 C   0  0  0  0  0  0  0  0  0  0  0  0
    3.8037    1.6953    0.0000 N   0  0  0  0  0  0  0  0  0  0  0  0
    3.8037    2.5203    0.0000 C   0  0  0  0  0  0  0  0  0  0  0  0
    4.5181    2.9328    0.0000 O   0  0  0  0  0  0  0  0  0  0  0  0
    3.0892    2.9328    0.0000 N   0  0  0  0  0  0  0  0  0  0  0  0
  1  2  2  0  0  0  0
  2  3  1  0  0  0  0
  3  4  2  0  0  0  0
  4  5  1  0  0  0  0
  5  6  2  0  0  0  0
  1  6  1  0  0  0  0
  5  7  1  0  0  0  0
  7  8  2  0  0  0  0
  8  9  1  0  0  0  0
  9 10  2  0  0  0  0
 10 11  1  0  0  0  0
 11 12  2  0  0  0  0
 12 13  1  0  0  0  0
 13 14  2  0  0  0  0
  9 14  1  0  0  0  0
 14 15  1  0  0  0  0
  4 15  1  0  0  0  0
 15 16  1  0  0  0  0
 16 17  2  0  0  0  0
 16 18  1  0  0  0  0
M  END
> <Molar mass [g/mol] [MProp:scalar:double]>
236.274

> <Exact mass [Da] [MProp:scalar:double]>
236.094963014

> <Formula>
C15H12N2O

> <Composition>
C (76.25%), H (5.12%), N (11.86%), O (6.77%)

> <Lipinski's rule of five [MProp:scalar:boolean]>
true

> <Atom count [MProp:scalar:integer]>
30

> <Heavy atom count [MProp:scalar:integer]>
18

> <Asymmetric atom count [MProp:scalar:integer]>
0

> <Rotatable bond count [MProp:scalar:integer]>
0

> <Ring count [MProp:scalar:integer]>
3

> <Aromatic ring count [MProp:scalar:integer]>
2

> <Hetero ring count [MProp:scalar:integer]>
1

> <FSP3 [MProp:scalar:double]>
0.0

> <Hydrogen bond donor count [MProp:scalar:integer]>
1

> <Hydrogen bond acceptor count [MProp:scalar:integer]>
1

> <Formal charge [MProp:scalar:integer]>
0

> <Topological polar surface area [A^2] [MProp:scalar:double]>
46.33

> <Polarizability [A^3] [MProp:scalar:double]>
26.79

> <Molar refractivity [cm^3/mol] [MProp:scalar:double]>
71.89

> <Van der Waals volume [A^3] [MProp:scalar:double]>
210.16

> <Minimum projection area [A^2] [MProp:scalar:double]>
39.18

> <Maximum projection area [A^2] [MProp:scalar:double]>
67.42

> <Minimum projection radius [A] [MProp:scalar:double]>
4.25

> <Maximum projection radius [A] [MProp:scalar:double]>
5.73

> <Van der Waals surface area [A^2] [MProp:scalar:double]>
312.24

> <Solvent accessible surface area [A^2] [MProp:scalar:double]>
370.91

> <Strongest acidic pKa [MProp:scalar:double]>
15.96

> <Strongest basic pKa>
N/A

> <Isoelectric point>
N/A

> <Intrinsic solubility [logS] [MProp:scalar:double]>
-3.79

> <Solubility category>
Moderate

> <logP [MProp:scalar:double]>
2.77

> <logD_PH0 [MProp:scalar:double]>
2.77

> <logD_PH1 [MProp:scalar:double]>
2.77

> <logD_PH2 [MProp:scalar:double]>
2.77

> <logD_PH3 [MProp:scalar:double]>
2.77

> <logD_PH4 [MProp:scalar:double]>
2.77

> <logD_PH5 [MProp:scalar:double]>
2.77

> <logD_PH6 [MProp:scalar:double]>
2.77

> <logD_PH7 [MProp:scalar:double]>
2.77

> <logD_PH8 [MProp:scalar:double]>
2.77

> <logD_PH9 [MProp:scalar:double]>
2.77

> <logD_PH10 [MProp:scalar:double]>
2.77

> <logD_PH11 [MProp:scalar:double]>
2.77

> <logD_PH12 [MProp:scalar:double]>
2.77

> <logD_PH13 [MProp:scalar:double]>
2.77

> <logD_PH14 [MProp:scalar:double]>
2.77

> <HLB [MProp:scalar:double]>
10.6

> <IUPAC name>
2-azatricyclo[9.4.0.0³,⁸]pentadeca-1(15),3,5,7,9,11,13-heptaene-2-carboxamide

> <SMILES>
NC(=O)N1C2=CC=CC=C2C=CC2=CC=CC=C12

> <InChI>
InChI=1S/C15H12N2O/c16-15(18)17-13-7-3-1-5-11(13)9-10-12-6-2-4-8-14(12)17/h1-10H,(H2,16,18)

> <InChIKey>
FFGPTBGBLSHEPO-UHFFFAOYSA-N

> <Traditional name>
carbamazepine

> <Common names>
apo-carbamazepine; atretol; biston; calepsin; carbamazepen; carbamazepina; carbamazepine; carbamazepinum; carbamezepine; carbatrol; carbazepine; carbelan; epitol; equetro; finlepsin; karbamazepin; lexin; neurotol; novo-carbamaz; nu-carbamazepine; sirtal; stazepin; stazepine; taro-carbamazepine; taro-carbamazepine cr; tegretal; tegretol; tegretol chewtabs; tegretol cr; tegretol-xr; telesmin; teril; timonil; 卡马西平

> <CAS Registry Numbers(R)>
298-46-4

$$$$
Carbamazepine-10,11-epoxide
  Mrv2222 01232613222D          

 19 22  0  0  0  0            999 V2000
    6.1237    0.8510    0.0000 C   0  0  0  0  0  0  0  0  0  0  0  0
    5.9401    1.6553    0.0000 C   0  0  0  0  0  0  0  0  0  0  0  0
    5.1517    1.8985    0.0000 C   0  0  0  0  0  0  0  0  0  0  0  0
    4.5470    1.3373    0.0000 C   0  0  0  0  0  0  0  0  0  0  0  0
    4.7305    0.5330    0.0000 C   0  0  0  0  0  0  0  0  0  0  0  0
    5.5189    0.2898    0.0000 C   0  0  0  0  0  0  0  0  0  0  0  0
    4.2162   -0.1120    0.0000 C   0  0  0  0  0  0  0  0  0  0  0  0
    3.3912   -0.1120    0.0000 C   0  0  0  0  0  0  0  0  0  0  0  0
    3.8037   -0.8265    0.0000 O   0  0  0  0  0  0  0  0  0  0  0  0
    2.8768    0.5330    0.0000 C   0  0  0  0  0  0  0  0  0  0  0  0
    2.0884    0.2898    0.0000 C   0  0  0  0  0  0  0  0  0  0  0  0
    1.4837    0.8510    0.0000 C   0  0  0  0  0  0  0  0  0  0  0  0
    1.6673    1.6553    0.0000 C   0  0  0  0  0  0  0  0  0  0  0  0
    2.4556    1.8985    0.0000 C   0  0  0  0  0  0  0  0  0  0  0  0
    3.0604    1.3373    0.0000 C   0  0  0  0  0  0  0  0  0  0  0  0
    3.8037    1.6953    0.0000 N   0  0  0  0  0  0  0  0  0  0  0  0
    3.8037    2.5203    0.0000 C   0  0  0  0  0  0  0  0  0  0  0  0
    4.5181    2.9328    0.0000 O   0  0  0  0  0  0  0  0  0  0  0  0
    3.0892    2.9328    0.0000 N   0  0  0  0  0  0  0  0  0  0  0  0
  1  2  2  0  0  0  0
  2  3  1  0  0  0  0
  3  4  2  0  0  0  0
  4  5  1  0  0  0  0
  5  6  2  0  0  0  0
  1  6  1  0  0  0  0
  5  7  1  0  0  0  0
  7  8  1  0  0  0  0
  8  9  1  0  0  0  0
  7  9  1  0  0  0  0
  8 10  1  0  0  0  0
 10 11  2  0  0  0  0
 11 12  1  0  0  0  0
 12 13  2  0  0  0  0
 13 14  1  0  0  0  0
 14 15  2  0  0  0  0
 10 15  1  0  0  0  0
 15 16  1  0  0  0  0
  4 16  1  0  0  0  0
 16 17  1  0  0  0  0
 17 18  2  0  0  0  0
 17 19  1  0  0  0  0
M  END
> <Molar mass [g/mol] [MProp:scalar:double]>
252.273

> <Exact mass [Da] [MProp:scalar:double]>
252.089877634

> <Formula>
C15H12N2O2

> <Composition>
C (71.42%), H (4.79%), N (11.10%), O (12.68%)

> <Lipinski's rule of five [MProp:scalar:boolean]>
true

> <Atom count [MProp:scalar:integer]>
31

> <Heavy atom count [MProp:scalar:integer]>
19

> <Asymmetric atom count [MProp:scalar:integer]>
2

> <Rotatable bond count [MProp:scalar:integer]>
0

> <Ring count [MProp:scalar:integer]>
4

> <Aromatic ring count [MProp:scalar:integer]>
2

> <Hetero ring count [MProp:scalar:integer]>
2

> <FSP3 [MProp:scalar:double]>
0.13

> <Hydrogen bond donor count [MProp:scalar:integer]>
1

> <Hydrogen bond acceptor count [MProp:scalar:integer]>
2

> <Formal charge [MProp:scalar:integer]>
0

> <Topological polar surface area [A^2] [MProp:scalar:double]>
58.86

> <Polarizability [A^3] [MProp:scalar:double]>
26.98

> <Molar refractivity [cm^3/mol] [MProp:scalar:double]>
69.98

> <Van der Waals volume [A^3] [MProp:scalar:double]>
215.29

> <Minimum projection area [A^2] [MProp:scalar:double]>
42.74

> <Maximum projection area [A^2] [MProp:scalar:double]>
66.43

> <Minimum projection radius [A] [MProp:scalar:double]>
4.22

> <Maximum projection radius [A] [MProp:scalar:double]>
5.62

> <Van der Waals surface area [A^2] [MProp:scalar:double]>
329.57

> <Solvent accessible surface area [A^2] [MProp:scalar:double]>
379.03

> <Strongest acidic pKa [MProp:scalar:double]>
15.96

> <Strongest basic pKa>
N/A

> <Isoelectric point>
N/A

> <Intrinsic solubility [logS] [MProp:scalar:double]>
-3.33

> <Solubility category>
High

> <logP [MProp:scalar:double]>
1.97

> <logD_PH0 [MProp:scalar:double]>
1.97

> <logD_PH1 [MProp:scalar:double]>
1.97

> <logD_PH2 [MProp:scalar:double]>
1.97

> <logD_PH3 [MProp:scalar:double]>
1.97

> <logD_PH4 [MProp:scalar:double]>
1.97

> <logD_PH5 [MProp:scalar:double]>
1.97

> <logD_PH6 [MProp:scalar:double]>
1.97

> <logD_PH7 [MProp:scalar:double]>
1.97

> <logD_PH8 [MProp:scalar:double]>
1.97

> <logD_PH9 [MProp:scalar:double]>
1.97

> <logD_PH10 [MProp:scalar:double]>
1.97

> <logD_PH11 [MProp:scalar:double]>
1.97

> <logD_PH12 [MProp:scalar:double]>
1.97

> <logD_PH13 [MProp:scalar:double]>
1.97

> <logD_PH14 [MProp:scalar:double]>
1.98

> <HLB [MProp:scalar:double]>
11.97

> <IUPAC name>
3-oxa-11-azatetracyclo[10.4.0.0²,⁴.0⁵,¹⁰]hexadeca-1(16),5,7,9,12,14-hexaene-11-carboxamide

> <SMILES>
NC(=O)N1C2=CC=CC=C2C2OC2C2=CC=CC=C12

> <InChI>
InChI=1/C15H12N2O2/c16-15(18)17-11-7-3-1-5-9(11)13-14(19-13)10-6-2-4-8-12(10)17/h1-8,13-14H,(H2,16,18)

> <InChIKey>
ZRWWEEVEIOGMMT-UHFFFAOYNA-N

> <Traditional name>
carbamazepine-10,11-epoxide

> <Common names>
carbamazepine-10,11-epoxide

> <CAS Registry Numbers(R)>
36507-30-9

$$$$
Cetirizine
  Mrv2222 01232613222D          

 27 29  0  0  0  0            999 V2000
    2.8579   -4.1250    0.0000 C    0  0  0  0  0  0  0  0  0  0  0  0
    2.1434   -4.5375    0.0000 C    0  0  0  0  0  0  0  0  0  0  0  0
    1.4289   -4.1250    0.0000 N    0  0  0  0  0  0  0  0  0  0  0  0
    1.4289   -3.3000    0.0000 C    0  0  0  0  0  0  0  0  0  0  0  0
    2.1434   -2.8875    0.0000 C    0  0  0  0  0  0  0  0  0  0  0  0
    2.8579   -3.3000    0.0000 N    0  0  0  0  0  0  0  0  0  0  0  0
    3.5724   -2.8875    0.0000 C    0  0  0  0  0  0  0  0  0  0  0  0
    4.2868   -3.3000    0.0000 C    0  0  0  0  0  0  0  0  0  0  0  0
    5.0013   -2.8875    0.0000 O    0  0  0  0  0  0  0  0  0  0  0  0
    5.7158   -3.3000    0.0000 C    0  0  0  0  0  0  0  0  0  0  0  0
    6.4302   -2.8875    0.0000 C    0  0  0  0  0  0  0  0  0  0  0  0
    7.1447   -3.3000    0.0000 O    0  0  0  0  0  0  0  0  0  0  0  0
    6.4302   -2.0625    0.0000 O    0  0  0  0  0  0  0  0  0  0  0  0
    0.7145   -4.5375    0.0000 C    0  0  0  0  0  0  0  0  0  0  0  0
    0.7145   -5.3625    0.0000 C    0  0  0  0  0  0  0  0  0  0  0  0
    1.4289   -5.7750    0.0000 C    0  0  0  0  0  0  0  0  0  0  0  0
    1.4289   -6.6000    0.0000 C    0  0  0  0  0  0  0  0  0  0  0  0
    0.7145   -7.0125    0.0000 C    0  0  0  0  0  0  0  0  0  0  0  0
    0.0000   -6.6000    0.0000 C    0  0  0  0  0  0  0  0  0  0  0  0
    0.0000   -5.7750    0.0000 C    0  0  0  0  0  0  0  0  0  0  0  0
    0.0000   -4.1250    0.0000 C    0  0  0  0  0  0  0  0  0  0  0  0
   -0.7145   -4.5375    0.0000 C    0  0  0  0  0  0  0  0  0  0  0  0
   -1.4289   -4.1250    0.0000 C    0  0  0  0  0  0  0  0  0  0  0  0
   -1.4289   -3.3000    0.0000 C    0  0  0  0  0  0  0  0  0  0  0  0
   -0.7145   -2.8875    0.0000 C    0  0  0  0  0  0  0  0  0  0  0  0
    0.0000   -3.3000    0.0000 C    0  0  0  0  0  0  0  0  0  0  0  0
   -2.1434   -2.8875    0.0000 Cl   0  0  0  0  0  0  0  0  0  0  0  0
  1  2  1  0  0  0  0
  2  3  1  0  0  0  0
  3  4  1  0  0  0  0
  4  5  1  0  0  0  0
  5  6  1  0  0  0  0
  1  6  1  0  0  0  0
  6  7  1  0  0  0  0
  7  8  1  0  0  0  0
  8  9  1  0  0  0  0
  9 10  1  0  0  0  0
 10 11  1  0  0  0  0
 11 12  2  0  0  0  0
 11 13  1  0  0  0  0
  3 14  1  0  0  0  0
 14 15  1  0  0  0  0
 15 16  2  0  0  0  0
 16 17  1  0  0  0  0
 17 18  2  0  0  0  0
 18 19  1  0  0  0  0
 19 20  2  0  0  0  0
 15 20  1  0  0  0  0
 14 21  1  0  0  0  0
 21 22  2  0  0  0  0
 22 23  1  0  0  0  0
 23 24  2  0  0  0  0
 24 25  1  0  0  0  0
 25 26  2  0  0  0  0
 21 26  1  0  0  0  0
 24 27  1  0  0  0  0
M  END
> <Molar mass [g/mol] [MProp:scalar:double]>
388.89

> <Exact mass [Da] [MProp:scalar:double]>
388.1553704

> <Formula>
C21H25ClN2O3

> <Composition>
C (64.86%), H (6.48%), Cl (9.12%), N (7.20%), O (12.34%)

> <Lipinski's rule of five [MProp:scalar:boolean]>
true

> <Atom count [MProp:scalar:integer]>
52

> <Heavy atom count [MProp:scalar:integer]>
27

> <Asymmetric atom count [MProp:scalar:integer]>
1

> <Rotatable bond count [MProp:scalar:integer]>
8

> <Ring count [MProp:scalar:integer]>
3

> <Aromatic ring count [MProp:scalar:integer]>
2

> <Hetero ring count [MProp:scalar:integer]>
1

> <FSP3 [MProp:scalar:double]>
0.38

> <Hydrogen bond donor count [MProp:scalar:integer]>
1

> <Hydrogen bond acceptor count [MProp:scalar:integer]>
5

> <Formal charge [MProp:scalar:integer]>
0

> <Topological polar surface area [A^2] [MProp:scalar:double]>
53.01

> <Polarizability [A^3] [MProp:scalar:double]>
41.88

> <Molar refractivity [cm^3/mol] [MProp:scalar:double]>
106.87

> <Van der Waals volume [A^3] [MProp:scalar:double]>
354.87

> <Minimum projection area [A^2] [MProp:scalar:double]>
71.32

> <Maximum projection area [A^2] [MProp:scalar:double]>
97.12

> <Minimum projection radius [A] [MProp:scalar:double]>
6.17

> <Maximum projection radius [A] [MProp:scalar:double]>
8.11

> <Van der Waals surface area [A^2] [MProp:scalar:double]>
577.3

> <Solvent accessible surface area [A^2] [MProp:scalar:double]>
649.26

> <Strongest acidic pKa [MProp:scalar:double]>
2.97

> <Strongest basic pKa [MProp:scalar:double]>
7.97

> <Isoelectric point [MProp:scalar:double]>
5.65

> <Intrinsic solubility [logS] [MProp:scalar:double]>
-2.96

> <Solubility category>
High

> <logP [MProp:scalar:double]>
0.86

> <logD_PH0 [MProp:scalar:double]>
-2.85

> <logD_PH1 [MProp:scalar:double]>
-1.97

> <logD_PH2 [MProp:scalar:double]>
-0.97

> <logD_PH3 [MProp:scalar:double]>
0.03

> <logD_PH4 [MProp:scalar:double]>
0.68

> <logD_PH5 [MProp:scalar:double]>
0.84

> <logD_PH6 [MProp:scalar:double]>
0.86

> <logD_PH7 [MProp:scalar:double]>
0.82

> <logD_PH8 [MProp:scalar:double]>
0.61

> <logD_PH9 [MProp:scalar:double]>
0.22

> <logD_PH10 [MProp:scalar:double]>
0.07

> <logD_PH11 [MProp:scalar:double]>
0.05

> <logD_PH12 [MProp:scalar:double]>
0.05

> <logD_PH13 [MProp:scalar:double]>
0.05

> <logD_PH14 [MProp:scalar:double]>
0.05

> <HLB [MProp:scalar:double]>
17.59

> <IUPAC name>
2-(2-{4-[(4-chlorophenyl)(phenyl)methyl]piperazin-1-yl}ethoxy)acetic acid

> <SMILES>
OC(=O)COCCN1CCN(CC1)C(C1=CC=CC=C1)C1=CC=C(Cl)C=C1

> <InChI>
InChI=1/C21H25ClN2O3/c22-19-8-6-18(7-9-19)21(17-4-2-1-3-5-17)24-12-10-23(11-13-24)14-15-27-16-20(25)26/h1-9,21H,10-16H2,(H,25,26)

> <InChIKey>
ZKLPARSLTMPFCP-UHFFFAOYNA-N

> <Traditional name>
cetirizine

> <Common names>
CetiLich; alerlisin; aliud brand of cetirizine dihydrochloride; alpharma brand of cetirizine dihydrochloride; awd.pharma brand of cetirizine dihydrochloride; azupharma brand of cetirizine dihydrochloride; basics brand of cetirizine dihydrochloride; benaday; cetalerg; ceterifug; ceti tad; ceti-puren; cetiderm; cetidura; cetil von ct; cetirigamma; cetirizin; cetirizin AL; cetirizin azu; cetirizin basics; cetirizina; cetirizine; cetirizine (product); cetirizine (substance); cetirizine dihydrochloride; cetirizine hydrochloride (substance); cetirizine hydrochloride preparation; cetirizine preparation; cetirizinum; cetirlan; cetryn; dermapharm brand of cetirizine dihydrochloride; dihydrochloride, cetirizine; formistin; glaxo wellcome brand of cetirizine dihydrochloride; hitrizin film tablet; humex; krewel brand of cetirizine dihydrochloride; lacer brand of cetirizine dihydrochloride; lichtenstein brand of cetirizine dihydrochloride; menarini brand of cetirizine dihydrochloride; merck dura brand of cetirizine dihydrochloride; pfizer brand of cetirizine dihydrochloride; reactine; rodleben brand of cetirizine; setir; tad brand of cetirizine dihydrochloride; ucb brand of cetirizine dihydrochloride; ucb pharma brand of cetirizine dihydrochloride; united drug brand of cetirizine dihydrochloride; virlix; voltric; wolff brand of cetirizine dihydrochloride; wörwag brand of cetirizine dihydrochloride; zetir; ziptek; zirtek; zyrlex; zyrtec; zyrtec syrup; zyrtec-D

> <CAS Registry Numbers(R)>
83881-51-0, 774596-22-4, 1219803-84-5

$$$$
Chlorantraniliprole
  Mrv2222 01232613222D          

 28 30  0  0  0  0            999 V2000
    0.0000    0.8250    0.0000 C    0  0  0  0  0  0  0  0  0  0  0  0
    0.7145    1.2375    0.0000 C    0  0  0  0  0  0  0  0  0  0  0  0
    0.7145    2.0625    0.0000 C    0  0  0  0  0  0  0  0  0  0  0  0
    1.4289    2.4750    0.0000 C    0  0  0  0  0  0  0  0  0  0  0  0
    2.1434    2.0625    0.0000 C    0  0  0  0  0  0  0  0  0  0  0  0
    2.1434    1.2375    0.0000 C    0  0  0  0  0  0  0  0  0  0  0  0
    1.4289    0.8250    0.0000 C    0  0  0  0  0  0  0  0  0  0  0  0
    1.4289    0.0000    0.0000 N    0  0  0  0  0  0  0  0  0  0  0  0
    0.7145   -0.4125    0.0000 C    0  0  0  0  0  0  0  0  0  0  0  0
    0.0000    0.0000    0.0000 O    0  0  0  0  0  0  0  0  0  0  0  0
    0.7145   -1.2375    0.0000 C    0  0  0  0  0  0  0  0  0  0  0  0
    1.3819   -1.7224    0.0000 C    0  0  0  0  0  0  0  0  0  0  0  0
    1.1270   -2.5070    0.0000 C    0  0  0  0  0  0  0  0  0  0  0  0
    0.3020   -2.5070    0.0000 N    0  0  0  0  0  0  0  0  0  0  0  0
    0.0470   -1.7224    0.0000 N    0  0  0  0  0  0  0  0  0  0  0  0
   -0.7376   -1.4675    0.0000 C    0  0  0  0  0  0  0  0  0  0  0  0
   -1.3507   -2.0195    0.0000 C    0  0  0  0  0  0  0  0  0  0  0  0
   -2.1353   -1.7646    0.0000 C    0  0  0  0  0  0  0  0  0  0  0  0
   -2.3068   -0.9576    0.0000 C    0  0  0  0  0  0  0  0  0  0  0  0
   -1.6937   -0.4056    0.0000 C    0  0  0  0  0  0  0  0  0  0  0  0
   -0.9091   -0.6605    0.0000 N    0  0  0  0  0  0  0  0  0  0  0  0
   -1.1792   -2.8265    0.0000 Cl   0  0  0  0  0  0  0  0  0  0  0  0
    1.6119   -3.1745    0.0000 Br   0  0  0  0  0  0  0  0  0  0  0  0
    2.8579    0.8250    0.0000 C    0  0  0  0  0  0  0  0  0  0  0  0
    3.5724    1.2375    0.0000 O    0  0  0  0  0  0  0  0  0  0  0  0
    2.8579    0.0000    0.0000 N    0  0  0  0  0  0  0  0  0  0  0  0
    3.5724   -0.4125    0.0000 C    0  0  0  0  0  0  0  0  0  0  0  0
    1.4289    3.3000    0.0000 Cl   0  0  0  0  0  0  0  0  0  0  0  0
  1  2  1  0  0  0  0
  2  3  2  0  0  0  0
  3  4  1  0  0  0  0
  4  5  2  0  0  0  0
  5  6  1  0  0  0  0
  6  7  2  0  0  0  0
  2  7  1  0  0  0  0
  7  8  1  0  0  0  0
  8  9  1  0  0  0  0
  9 10  2  0  0  0  0
  9 11  1  0  0  0  0
 11 12  2  0  0  0  0
 12 13  1  0  0  0  0
 13 14  2  0  0  0  0
 14 15  1  0  0  0  0
 11 15  1  0  0  0  0
 15 16  1  0  0  0  0
 16 17  2  0  0  0  0
 17 18  1  0  0  0  0
 18 19  2  0  0  0  0
 19 20  1  0  0  0  0
 20 21  2  0  0  0  0
 16 21  1  0  0  0  0
 17 22  1  0  0  0  0
 13 23  1  0  0  0  0
  6 24  1  0  0  0  0
 24 25  2  0  0  0  0
 24 26  1  0  0  0  0
 26 27  1  0  0  0  0
  4 28  1  0  0  0  0
M  END
> <Molar mass [g/mol] [MProp:scalar:double]>
483.15

> <Exact mass [Da] [MProp:scalar:double]>
480.970793

> <Formula>
C18H14BrCl2N5O2

> <Composition>
C (44.75%), H (2.92%), Br (16.54%), Cl (14.67%), N (14.50%), O (6.62%)

> <Lipinski's rule of five [MProp:scalar:boolean]>
true

> <Atom count [MProp:scalar:integer]>
42

> <Heavy atom count [MProp:scalar:integer]>
28

> <Asymmetric atom count [MProp:scalar:integer]>
0

> <Rotatable bond count [MProp:scalar:integer]>
4

> <Ring count [MProp:scalar:integer]>
3

> <Aromatic ring count [MProp:scalar:integer]>
3

> <Hetero ring count [MProp:scalar:integer]>
2

> <FSP3 [MProp:scalar:double]>
0.11

> <Hydrogen bond donor count [MProp:scalar:integer]>
2

> <Hydrogen bond acceptor count [MProp:scalar:integer]>
4

> <Formal charge [MProp:scalar:integer]>
0

> <Topological polar surface area [A^2] [MProp:scalar:double]>
88.91

> <Polarizability [A^3] [MProp:scalar:double]>
41.73

> <Molar refractivity [cm^3/mol] [MProp:scalar:double]>
115.08

> <Van der Waals volume [A^3] [MProp:scalar:double]>
340.08

> <Minimum projection area [A^2] [MProp:scalar:double]>
68.37

> <Maximum projection area [A^2] [MProp:scalar:double]>
94.66

> <Minimum projection radius [A] [MProp:scalar:double]>
5.37

> <Maximum projection radius [A] [MProp:scalar:double]>
7.89

> <Van der Waals surface area [A^2] [MProp:scalar:double]>
517.54

> <Solvent accessible surface area [A^2] [MProp:scalar:double]>
569.32

> <Strongest acidic pKa [MProp:scalar:double]>
13.79

> <Strongest basic pKa [MProp:scalar:double]>
1.59

> <Isoelectric point [MProp:scalar:double]>
7.66

> <Intrinsic solubility [logS] [MProp:scalar:double]>
-6.77

> <Solubility category>
Low

> <logP [MProp:scalar:double]>
4.87

> <logD_PH0 [MProp:scalar:double]>
3.32

> <logD_PH1 [MProp:scalar:double]>
4.2

> <logD_PH2 [MProp:scalar:double]>
4.73

> <logD_PH3 [MProp:scalar:double]>
4.85

> <logD_PH4 [MProp:scalar:double]>
4.87

> <logD_PH5 [MProp:scalar:double]>
4.87

> <logD_PH6 [MProp:scalar:double]>
4.87

> <logD_PH7 [MProp:scalar:double]>
4.87

> <logD_PH8 [MProp:scalar:double]>
4.87

> <logD_PH9 [MProp:scalar:double]>
4.87

> <logD_PH10 [MProp:scalar:double]>
4.87

> <logD_PH11 [MProp:scalar:double]>
4.87

> <logD_PH12 [MProp:scalar:double]>
4.86

> <logD_PH13 [MProp:scalar:double]>
4.81

> <logD_PH14 [MProp:scalar:double]>
4.44

> <HLB [MProp:scalar:double]>
16.34

> <IUPAC name>
3-bromo-N-[4-chloro-2-methyl-6-(methylcarbamoyl)phenyl]-1-(3-chloropyridin-2-yl)-1H-pyrazole-5-carboxamide

> <SMILES>
CNC(=O)C1=C(NC(=O)C2=CC(Br)=NN2C2=C(Cl)C=CC=N2)C(C)=CC(Cl)=C1

> <InChI>
InChI=1S/C18H14BrCl2N5O2/c1-9-6-10(20)7-11(17(27)22-2)15(9)24-18(28)13-8-14(19)25-26(13)16-12(21)4-3-5-23-16/h3-8H,1-2H3,(H,22,27)(H,24,28)

> <InChIKey>
PSOVNZZNOMJUBI-UHFFFAOYSA-N

> <Traditional name>
chlorantraniliprole

> <Common names>
chlorantraniliprole

> <CAS Registry Numbers(R)>
500008-45-7

$$$$
Chloridazon-desphenyl
  Mrv2222 01232613222D          

  9  9  0  0  0  0            999 V2000
    1.4289    0.8250    0.0000 C    0  0  0  0  0  0  0  0  0  0  0  0
    1.4289    0.0000    0.0000 N    0  0  0  0  0  0  0  0  0  0  0  0
    0.7145   -0.4125    0.0000 N    0  0  0  0  0  0  0  0  0  0  0  0
    0.0000    0.0000    0.0000 C    0  0  0  0  0  0  0  0  0  0  0  0
   -0.7145   -0.4125    0.0000 O    0  0  0  0  0  0  0  0  0  0  0  0
    0.0000    0.8250    0.0000 C    0  0  0  0  0  0  0  0  0  0  0  0
    0.7145    1.2375    0.0000 C    0  0  0  0  0  0  0  0  0  0  0  0
    0.7145    2.0625    0.0000 N    0  0  0  0  0  0  0  0  0  0  0  0
   -0.7145    1.2375    0.0000 Cl   0  0  0  0  0  0  0  0  0  0  0  0
  1  2  2  0  0  0  0
  2  3  1  0  0  0  0
  3  4  1  0  0  0  0
  4  5  2  0  0  0  0
  4  6  1  0  0  0  0
  6  7  2  0  0  0  0
  1  7  1  0  0  0  0
  7  8  1  0  0  0  0
  6  9  1  0  0  0  0
M  END
> <Molar mass [g/mol] [MProp:scalar:double]>
145.55

> <Exact mass [Da] [MProp:scalar:double]>
145.0042895

> <Formula>
C4H4ClN3O

> <Composition>
C (33.01%), H (2.77%), Cl (24.36%), N (28.87%), O (10.99%)

> <Lipinski's rule of five [MProp:scalar:boolean]>
true

> <Atom count [MProp:scalar:integer]>
13

> <Heavy atom count [MProp:scalar:integer]>
9

> <Asymmetric atom count [MProp:scalar:integer]>
0

> <Rotatable bond count [MProp:scalar:integer]>
0

> <Ring count [MProp:scalar:integer]>
1

> <Aromatic ring count [MProp:scalar:integer]>
1

> <Hetero ring count [MProp:scalar:integer]>
1

> <FSP3 [MProp:scalar:double]>
0.0

> <Hydrogen bond donor count [MProp:scalar:integer]>
2

> <Hydrogen bond acceptor count [MProp:scalar:integer]>
3

> <Formal charge [MProp:scalar:integer]>
0

> <Topological polar surface area [A^2] [MProp:scalar:double]>
67.48

> <Polarizability [A^3] [MProp:scalar:double]>
12.21

> <Molar refractivity [cm^3/mol] [MProp:scalar:double]>
34.38

> <Van der Waals volume [A^3] [MProp:scalar:double]>
105.96

> <Minimum projection area [A^2] [MProp:scalar:double]>
22.84

> <Maximum projection area [A^2] [MProp:scalar:double]>
43.34

> <Minimum projection radius [A] [MProp:scalar:double]>
3.87

> <Maximum projection radius [A] [MProp:scalar:double]>
4.15

> <Van der Waals surface area [A^2] [MProp:scalar:double]>
142.08

> <Solvent accessible surface area [A^2] [MProp:scalar:double]>
224.6

> <Strongest acidic pKa [MProp:scalar:double]>
8.7

> <Strongest basic pKa [MProp:scalar:double]>
-0.38

> <Isoelectric point [MProp:scalar:double]>
4.16

> <Intrinsic solubility [logS] [MProp:scalar:double]>
-1.02

> <Solubility category>
High

> <logP [MProp:scalar:double]>
-0.78

> <logD_PH0 [MProp:scalar:double]>
-0.93

> <logD_PH1 [MProp:scalar:double]>
-0.79

> <logD_PH2 [MProp:scalar:double]>
-0.78

> <logD_PH3 [MProp:scalar:double]>
-0.78

> <logD_PH4 [MProp:scalar:double]>
-0.78

> <logD_PH5 [MProp:scalar:double]>
-0.78

> <logD_PH6 [MProp:scalar:double]>
-0.78

> <logD_PH7 [MProp:scalar:double]>
-0.78

> <logD_PH8 [MProp:scalar:double]>
-0.85

> <logD_PH9 [MProp:scalar:double]>
-1.17

> <logD_PH10 [MProp:scalar:double]>
-1.58

> <logD_PH11 [MProp:scalar:double]>
-1.7

> <logD_PH12 [MProp:scalar:double]>
-1.72

> <logD_PH13 [MProp:scalar:double]>
-1.72

> <logD_PH14 [MProp:scalar:double]>
-1.72

> <HLB [MProp:scalar:double]>
11.01

> <IUPAC name>
5-amino-4-chloro-2,3-dihydropyridazin-3-one

> <SMILES>
NC1=C(Cl)C(=O)NN=C1

> <InChI>
InChI=1S/C4H4ClN3O/c5-3-2(6)1-7-8-4(3)9/h1H,(H3,6,8,9)

> <InChIKey>
FEWPCPCEGBPTAL-UHFFFAOYSA-N

> <Traditional name>
5-amino-4-chloro-2H-pyridazin-3-one

> <Common names>
N/A

> <CAS Registry Numbers(R)>
6339-19-1

$$$$
Citalopram
  Mrv2222 01232613222D          

 24 26  0  0  0  0            999 V2000
   -0.1715   -3.2820    0.0000 C   0  0  0  0  0  0  0  0  0  0  0  0
    0.5429   -3.6945    0.0000 N   0  0  0  0  0  0  0  0  0  0  0  0
    0.5429   -4.5195    0.0000 C   0  0  0  0  0  0  0  0  0  0  0  0
    1.2574   -3.2820    0.0000 C   0  0  0  0  0  0  0  0  0  0  0  0
    1.9719   -3.6945    0.0000 C   0  0  0  0  0  0  0  0  0  0  0  0
    2.6864   -3.2820    0.0000 C   0  0  0  0  0  0  0  0  0  0  0  0
    3.4008   -3.6945    0.0000 C   0  0  0  0  0  0  0  0  0  0  0  0
    4.0139   -4.2465    0.0000 C   0  0  0  0  0  0  0  0  0  0  0  0
    4.7284   -3.8340    0.0000 C   0  0  0  0  0  0  0  0  0  0  0  0
    4.5569   -3.0270    0.0000 C   0  0  0  0  0  0  0  0  0  0  0  0
    3.7364   -2.9408    0.0000 O   0  0  0  0  0  0  0  0  0  0  0  0
    5.4429   -4.2465    0.0000 C   0  0  0  0  0  0  0  0  0  0  0  0
    5.4429   -5.0715    0.0000 C   0  0  0  0  0  0  0  0  0  0  0  0
    4.7284   -5.4840    0.0000 C   0  0  0  0  0  0  0  0  0  0  0  0
    4.0139   -5.0715    0.0000 C   0  0  0  0  0  0  0  0  0  0  0  0
    6.1573   -5.4840    0.0000 C   0  0  0  0  0  0  0  0  0  0  0  0
    6.8718   -5.8965    0.0000 N   0  0  0  0  0  0  0  0  0  0  0  0
    2.9159   -4.3619    0.0000 C   0  0  0  0  0  0  0  0  0  0  0  0
    3.2515   -5.1156    0.0000 C   0  0  0  0  0  0  0  0  0  0  0  0
    2.7665   -5.7830    0.0000 C   0  0  0  0  0  0  0  0  0  0  0  0
    1.9461   -5.6968    0.0000 C   0  0  0  0  0  0  0  0  0  0  0  0
    1.6105   -4.9431    0.0000 C   0  0  0  0  0  0  0  0  0  0  0  0
    2.0954   -4.2757    0.0000 C   0  0  0  0  0  0  0  0  0  0  0  0
    1.4611   -6.3642    0.0000 F   0  0  0  0  0  0  0  0  0  0  0  0
  1  2  1  0  0  0  0
  2  3  1  0  0  0  0
  2  4  1  0  0  0  0
  4  5  1  0  0  0  0
  5  6  1  0  0  0  0
  6  7  1  0  0  0  0
  7  8  1  0  0  0  0
  8  9  2  0  0  0  0
  9 10  1  0  0  0  0
 10 11  1  0  0  0  0
  7 11  1  0  0  0  0
  9 12  1  0  0  0  0
 12 13  2  0  0  0  0
 13 14  1  0  0  0  0
 14 15  2  0  0  0  0
  8 15  1  0  0  0  0
 13 16  1  0  0  0  0
 16 17  3  0  0  0  0
  7 18  1  0  0  0  0
 18 19  2  0  0  0  0
 19 20  1  0  0  0  0
 20 21  2  0  0  0  0
 21 22  1  0  0  0  0
 22 23  2  0  0  0  0
 18 23  1  0  0  0  0
 21 24  1  0  0  0  0
M  END
> <Molar mass [g/mol] [MProp:scalar:double]>
324.399

> <Exact mass [Da] [MProp:scalar:double]>
324.163791467

> <Formula>
C20H21FN2O

> <Composition>
C (74.05%), H (6.53%), F (5.86%), N (8.64%), O (4.93%)

> <Lipinski's rule of five [MProp:scalar:boolean]>
true

> <Atom count [MProp:scalar:integer]>
45

> <Heavy atom count [MProp:scalar:integer]>
24

> <Asymmetric atom count [MProp:scalar:integer]>
1

> <Rotatable bond count [MProp:scalar:integer]>
5

> <Ring count [MProp:scalar:integer]>
3

> <Aromatic ring count [MProp:scalar:integer]>
2

> <Hetero ring count [MProp:scalar:integer]>
1

> <FSP3 [MProp:scalar:double]>
0.35

> <Hydrogen bond donor count [MProp:scalar:integer]>
0

> <Hydrogen bond acceptor count [MProp:scalar:integer]>
3

> <Formal charge [MProp:scalar:integer]>
0

> <Topological polar surface area [A^2] [MProp:scalar:double]>
36.26

> <Polarizability [A^3] [MProp:scalar:double]>
35.76

> <Molar refractivity [cm^3/mol] [MProp:scalar:double]>
94.02

> <Van der Waals volume [A^3] [MProp:scalar:double]>
303.89

> <Minimum projection area [A^2] [MProp:scalar:double]>
60.2

> <Maximum projection area [A^2] [MProp:scalar:double]>
86.38

> <Minimum projection radius [A] [MProp:scalar:double]>
5.68

> <Maximum projection radius [A] [MProp:scalar:double]>
8.09

> <Van der Waals surface area [A^2] [MProp:scalar:double]>
499.37

> <Solvent accessible surface area [A^2] [MProp:scalar:double]>
561.68

> <Strongest acidic pKa>
N/A

> <Strongest basic pKa [MProp:scalar:double]>
10.38

> <Isoelectric point>
N/A

> <Intrinsic solubility [logS] [MProp:scalar:double]>
-3.85

> <Solubility category>
Moderate

> <logP [MProp:scalar:double]>
3.76

> <logD_PH0 [MProp:scalar:double]>
0.26

> <logD_PH1 [MProp:scalar:double]>
0.26

> <logD_PH2 [MProp:scalar:double]>
0.26

> <logD_PH3 [MProp:scalar:double]>
0.26

> <logD_PH4 [MProp:scalar:double]>
0.26

> <logD_PH5 [MProp:scalar:double]>
0.27

> <logD_PH6 [MProp:scalar:double]>
0.32

> <logD_PH7 [MProp:scalar:double]>
0.63

> <logD_PH8 [MProp:scalar:double]>
1.41

> <logD_PH9 [MProp:scalar:double]>
2.37

> <logD_PH10 [MProp:scalar:double]>
3.23

> <logD_PH11 [MProp:scalar:double]>
3.67

> <logD_PH12 [MProp:scalar:double]>
3.75

> <logD_PH13 [MProp:scalar:double]>
3.76

> <logD_PH14 [MProp:scalar:double]>
3.76

> <HLB [MProp:scalar:double]>
10.02

> <IUPAC name>
1-[3-(dimethylamino)propyl]-1-(4-fluorophenyl)-1,3-dihydro-2-benzofuran-5-carbonitrile

> <SMILES>
CN(C)CCCC1(OCC2=C1C=CC(=C2)C#N)C1=CC=C(F)C=C1

> <InChI>
InChI=1/C20H21FN2O/c1-23(2)11-3-10-20(17-5-7-18(21)8-6-17)19-9-4-15(13-22)12-16(19)14-24-20/h4-9,12H,3,10-11,14H2,1-2H3

> <InChIKey>
WSEQXVZVJXJVFP-UHFFFAOYNA-N

> <Traditional name>
citalopram

> <Common names>
akarin; bonitrile; celapram; celius; ciazil; cilift; cimal; cipram; cipramil; ciprapine; citabax; citadur; citalec; citalopram; citalopram (product); citalopram (substance); citalopram preparation; citalopramum; citol; citopam; cytalopram; dalsan; elopram; escitalopram (product); escitalopram (substance); escitalopram preparation; humorup; nitalapram; oropram; pramcit; recital; seropram; talam; talohexal; temperax; vodelax; zentius; zetalo

> <CAS Registry Numbers(R)>
59729-33-8

$$$$
Clofibricacid
  Mrv2222 01232613222D          

 14 14  0  0  0  0            999 V2000
   -0.4125    1.7605    0.0000 C    0  0  0  0  0  0  0  0  0  0  0  0
    0.0000    2.4750    0.0000 C    0  0  0  0  0  0  0  0  0  0  0  0
    0.4125    3.1895    0.0000 C    0  0  0  0  0  0  0  0  0  0  0  0
   -0.7145    2.8875    0.0000 C    0  0  0  0  0  0  0  0  0  0  0  0
   -0.7145    3.7125    0.0000 O    0  0  0  0  0  0  0  0  0  0  0  0
   -1.4289    2.4750    0.0000 O    0  0  0  0  0  0  0  0  0  0  0  0
    0.7145    2.0625    0.0000 O    0  0  0  0  0  0  0  0  0  0  0  0
    0.7145    1.2375    0.0000 C    0  0  0  0  0  0  0  0  0  0  0  0
    1.4289    0.8250    0.0000 C    0  0  0  0  0  0  0  0  0  0  0  0
    1.4289    0.0000    0.0000 C    0  0  0  0  0  0  0  0  0  0  0  0
    0.7145   -0.4125    0.0000 C    0  0  0  0  0  0  0  0  0  0  0  0
    0.0000    0.0000    0.0000 C    0  0  0  0  0  0  0  0  0  0  0  0
    0.0000    0.8250    0.0000 C    0  0  0  0  0  0  0  0  0  0  0  0
    0.7145   -1.2375    0.0000 Cl   0  0  0  0  0  0  0  0  0  0  0  0
  1  2  1  0  0  0  0
  2  3  1  0  0  0  0
  2  4  1  0  0  0  0
  4  5  2  0  0  0  0
  4  6  1  0  0  0  0
  2  7  1  0  0  0  0
  7  8  1  0  0  0  0
  8  9  2  0  0  0  0
  9 10  1  0  0  0  0
 10 11  2  0  0  0  0
 11 12  1  0  0  0  0
 12 13  2  0  0  0  0
  8 13  1  0  0  0  0
 11 14  1  0  0  0  0
M  END
> <Molar mass [g/mol] [MProp:scalar:double]>
214.65

> <Exact mass [Da] [MProp:scalar:double]>
214.0396719

> <Formula>
C10H11ClO3

> <Composition>
C (55.96%), H (5.17%), Cl (16.52%), O (22.36%)

> <Lipinski's rule of five [MProp:scalar:boolean]>
true

> <Atom count [MProp:scalar:integer]>
25

> <Heavy atom count [MProp:scalar:integer]>
14

> <Asymmetric atom count [MProp:scalar:integer]>
0

> <Rotatable bond count [MProp:scalar:integer]>
3

> <Ring count [MProp:scalar:integer]>
1

> <Aromatic ring count [MProp:scalar:integer]>
1

> <Hetero ring count [MProp:scalar:integer]>
0

> <FSP3 [MProp:scalar:double]>
0.3

> <Hydrogen bond donor count [MProp:scalar:integer]>
1

> <Hydrogen bond acceptor count [MProp:scalar:integer]>
3

> <Formal charge [MProp:scalar:integer]>
0

> <Topological polar surface area [A^2] [MProp:scalar:double]>
46.53

> <Polarizability [A^3] [MProp:scalar:double]>
20.8

> <Molar refractivity [cm^3/mol] [MProp:scalar:double]>
52.62

> <Van der Waals volume [A^3] [MProp:scalar:double]>
184.05

> <Minimum projection area [A^2] [MProp:scalar:double]>
30.34

> <Maximum projection area [A^2] [MProp:scalar:double]>
58.97

> <Minimum projection radius [A] [MProp:scalar:double]>
3.5

> <Maximum projection radius [A] [MProp:scalar:double]>
6.2

> <Van der Waals surface area [A^2] [MProp:scalar:double]>
302.0

> <Solvent accessible surface area [A^2] [MProp:scalar:double]>
372.83

> <Strongest acidic pKa [MProp:scalar:double]>
2.97

> <Strongest basic pKa>
N/A

> <Isoelectric point>
N/A

> <Intrinsic solubility [logS] [MProp:scalar:double]>
-2.98

> <Solubility category>
High

> <logP [MProp:scalar:double]>
2.9

> <logD_PH0 [MProp:scalar:double]>
2.9

> <logD_PH1 [MProp:scalar:double]>
2.89

> <logD_PH2 [MProp:scalar:double]>
2.86

> <logD_PH3 [MProp:scalar:double]>
2.58

> <logD_PH4 [MProp:scalar:double]>
1.83

> <logD_PH5 [MProp:scalar:double]>
0.88

> <logD_PH6 [MProp:scalar:double]>
-0.01

> <logD_PH7 [MProp:scalar:double]>
-0.51

> <logD_PH8 [MProp:scalar:double]>
-0.62

> <logD_PH9 [MProp:scalar:double]>
-0.63

> <logD_PH10 [MProp:scalar:double]>
-0.63

> <logD_PH11 [MProp:scalar:double]>
-0.63

> <logD_PH12 [MProp:scalar:double]>
-0.63

> <logD_PH13 [MProp:scalar:double]>
-0.63

> <logD_PH14 [MProp:scalar:double]>
-0.63

> <HLB [MProp:scalar:double]>
8.0

> <IUPAC name>
2-(4-chlorophenoxy)-2-methylpropanoic acid

> <SMILES>
CC(C)(OC1=CC=C(Cl)C=C1)C(O)=O

> <InChI>
InChI=1S/C10H11ClO3/c1-10(2,9(12)13)14-8-5-3-7(11)4-6-8/h3-6H,1-2H3,(H,12,13)

> <InChIKey>
TXCGAZHTZHNUAI-UHFFFAOYSA-N

> <Traditional name>
fibrates

> <Common names>
4-cpib; PCIB; acide clofibrique; acido clofibrico; acidum chlorphibricum; acidum clofibricum; aluminum clofibrate [usan:ban:inn:jan]; chlorfibrinic acid; chlorofibrinic acid; chlorophibrinic acid; clofibrate free acid; clofibric acid; clofibrin; clofibrinic acid; clofibrinsaeure; fibrates; p-chlorophenoxyisobutyrate; p-chlorophenoxyisobutyric acid; pcpib; regadrin; regulipid; 氯贝酸

> <CAS Registry Numbers(R)>
882-09-7

$$$$
Clothianidin
  Mrv2222 01232613222D          

 15 15  0  0  0  0            999 V2000
   -0.1467    3.1768    0.0000 C    0  0  0  0  0  0  0  0  0  0  0  0
    0.5678    3.5893    0.0000 N    0  0  0  0  0  0  0  0  0  0  0  0
    1.2822    3.1768    0.0000 C    0  0  0  0  0  0  0  0  0  0  0  0
    1.9967    3.5893    0.0000 N    0  0  0  0  0  0  0  0  0  0  0  0
    1.9967    4.4143    0.0000 N    0  3  0  0  0  0  0  0  0  0  0  0
    2.7112    4.8268    0.0000 O    0  0  0  0  0  0  0  0  0  0  0  0
    1.2822    4.8268    0.0000 O    0  5  0  0  0  0  0  0  0  0  0  0
    1.2822    2.3518    0.0000 N    0  0  0  0  0  0  0  0  0  0  0  0
    0.5678    1.9393    0.0000 C    0  0  0  0  0  0  0  0  0  0  0  0
    0.5678    1.1143    0.0000 C    0  0  0  0  0  0  0  0  0  0  0  0
    1.2352    0.6294    0.0000 C    0  0  0  0  0  0  0  0  0  0  0  0
    0.9803   -0.1553    0.0000 N    0  0  0  0  0  0  0  0  0  0  0  0
    0.1553   -0.1553    0.0000 C    0  0  0  0  0  0  0  0  0  0  0  0
   -0.0997    0.6294    0.0000 S    0  0  0  0  0  0  0  0  0  0  0  0
   -0.3297   -0.8227    0.0000 Cl   0  0  0  0  0  0  0  0  0  0  0  0
  1  2  1  0  0  0  0
  2  3  1  0  0  0  0
  3  4  2  0  0  0  0
  4  5  1  0  0  0  0
  5  6  2  0  0  0  0
  5  7  1  0  0  0  0
  3  8  1  0  0  0  0
  8  9  1  0  0  0  0
  9 10  1  0  0  0  0
 10 11  2  0  0  0  0
 11 12  1  0  0  0  0
 12 13  2  0  0  0  0
 13 14  1  0  0  0  0
 10 14  1  0  0  0  0
 13 15  1  0  0  0  0
M  END
> <Molar mass [g/mol] [MProp:scalar:double]>
249.67

> <Exact mass [Da] [MProp:scalar:double]>
249.0087234

> <Formula>
C6H8ClN5O2S

> <Composition>
C (28.86%), H (3.23%), Cl (14.20%), N (28.05%), O (12.82%), S (12.84%)

> <Lipinski's rule of five [MProp:scalar:boolean]>
true

> <Atom count [MProp:scalar:integer]>
23

> <Heavy atom count [MProp:scalar:integer]>
15

> <Asymmetric atom count [MProp:scalar:integer]>
0

> <Rotatable bond count [MProp:scalar:integer]>
3

> <Ring count [MProp:scalar:integer]>
1

> <Aromatic ring count [MProp:scalar:integer]>
1

> <Hetero ring count [MProp:scalar:integer]>
1

> <FSP3 [MProp:scalar:double]>
0.33

> <Hydrogen bond donor count [MProp:scalar:integer]>
2

> <Hydrogen bond acceptor count [MProp:scalar:integer]>
6

> <Formal charge [MProp:scalar:integer]>
0

> <Topological polar surface area [A^2] [MProp:scalar:double]>
92.45

> <Polarizability [A^3] [MProp:scalar:double]>
20.84

> <Molar refractivity [cm^3/mol] [MProp:scalar:double]>
55.53

> <Van der Waals volume [A^3] [MProp:scalar:double]>
184.64

> <Minimum projection area [A^2] [MProp:scalar:double]>
32.4

> <Maximum projection area [A^2] [MProp:scalar:double]>
61.68

> <Minimum projection radius [A] [MProp:scalar:double]>
3.67

> <Maximum projection radius [A] [MProp:scalar:double]>
6.64

> <Van der Waals surface area [A^2] [MProp:scalar:double]>
293.97

> <Solvent accessible surface area [A^2] [MProp:scalar:double]>
427.35

> <Strongest acidic pKa [MProp:scalar:double]>
14.63

> <Strongest basic pKa [MProp:scalar:double]>
0.44

> <Isoelectric point [MProp:scalar:double]>
7.53

> <Intrinsic solubility [logS] [MProp:scalar:double]>
-2.95

> <Solubility category>
High

> <logP [MProp:scalar:double]>
0.54

> <logD_PH0 [MProp:scalar:double]>
0.01

> <logD_PH1 [MProp:scalar:double]>
0.44

> <logD_PH2 [MProp:scalar:double]>
0.53

> <logD_PH3 [MProp:scalar:double]>
0.54

> <logD_PH4 [MProp:scalar:double]>
0.54

> <logD_PH5 [MProp:scalar:double]>
0.54

> <logD_PH6 [MProp:scalar:double]>
0.54

> <logD_PH7 [MProp:scalar:double]>
0.54

> <logD_PH8 [MProp:scalar:double]>
0.54

> <logD_PH9 [MProp:scalar:double]>
0.54

> <logD_PH10 [MProp:scalar:double]>
0.54

> <logD_PH11 [MProp:scalar:double]>
0.54

> <logD_PH12 [MProp:scalar:double]>
0.54

> <logD_PH13 [MProp:scalar:double]>
0.53

> <logD_PH14 [MProp:scalar:double]>
0.46

> <HLB [MProp:scalar:double]>
16.71

> <IUPAC name>
(E)-N'-[(2-chloro-1,3-thiazol-5-yl)methyl]-N-methyl-N''-nitroguanidine

> <SMILES>
CN\C(NCC1=CN=C(Cl)S1)=N/[N+]([O-])=O

> <InChI>
InChI=1S/C6H8ClN5O2S/c1-8-6(11-12(13)14)10-3-4-2-9-5(7)15-4/h2H,3H2,1H3,(H2,8,10,11)

> <InChIKey>
PGOOBECODWQEAB-UHFFFAOYSA-N

> <Traditional name>
clothianidin

> <Common names>
(E)-clothianidin; clothianidin

> <CAS Registry Numbers(R)>
210880-92-5, 205510-53-8

$$$$
Cocaine
  Mrv2222 01232613222D          

 22 24  0  0  1  0            999 V2000
    2.1787   -0.2550    0.0000 C   0  0  0  0  0  0  0  0  0  0  0  0
    1.3941   -0.0001    0.0000 N   0  0  0  0  0  0  0  0  0  0  0  0
    1.1624    0.9268    0.0000 C   0  0  1  0  0  0  0  0  0  0  0  0
    0.5174    0.4124    0.0000 C   0  0  0  0  0  0  0  0  0  0  0  0
    0.5174   -0.4126    0.0000 C   0  0  0  0  0  0  0  0  0  0  0  0
    1.1624   -0.9270    0.0000 C   0  0  2  0  0  0  0  0  0  0  0  0
    1.9667   -0.7434    0.0000 C   0  0  2  0  0  0  0  0  0  0  0  0
    2.3247   -0.0001    0.0000 C   0  0  2  0  0  0  0  0  0  0  0  0
    1.9667    0.7432    0.0000 C   0  0  0  0  0  0  0  0  0  0  0  0
    3.1497   -0.0001    0.0000 O   0  0  0  0  0  0  0  0  0  0  0  0
    3.5622    0.7144    0.0000 C   0  0  0  0  0  0  0  0  0  0  0  0
    3.1497    1.4288    0.0000 O   0  0  0  0  0  0  0  0  0  0  0  0
    4.3872    0.7144    0.0000 C   0  0  0  0  0  0  0  0  0  0  0  0
    4.7997    1.4288    0.0000 C   0  0  0  0  0  0  0  0  0  0  0  0
    5.6247    1.4288    0.0000 C   0  0  0  0  0  0  0  0  0  0  0  0
    6.0372    0.7144    0.0000 C   0  0  0  0  0  0  0  0  0  0  0  0
    5.6247   -0.0001    0.0000 C   0  0  0  0  0  0  0  0  0  0  0  0
    4.7997   -0.0001    0.0000 C   0  0  0  0  0  0  0  0  0  0  0  0
    2.4811   -1.3884    0.0000 C   0  0  0  0  0  0  0  0  0  0  0  0
    3.2969   -1.2655    0.0000 O   0  0  0  0  0  0  0  0  0  0  0  0
    2.1797   -2.1564    0.0000 O   0  0  0  0  0  0  0  0  0  0  0  0
    1.3639   -2.2793    0.0000 C   0  0  0  0  0  0  0  0  0  0  0  0
  1  2  1  0  0  0  0
  3  2  1  6  0  0  0
  3  4  1  0  0  0  0
  4  5  1  0  0  0  0
  6  5  1  0  0  0  0
  6  2  1  6  0  0  0
  7  6  1  0  0  0  0
  7  8  1  0  0  0  0
  8  9  1  0  0  0  0
  3  9  1  0  0  0  0
  8 10  1  6  0  0  0
 10 11  1  0  0  0  0
 11 12  2  0  0  0  0
 11 13  1  0  0  0  0
 13 14  2  0  0  0  0
 14 15  1  0  0  0  0
 15 16  2  0  0  0  0
 16 17  1  0  0  0  0
 17 18  2  0  0  0  0
 13 18  1  0  0  0  0
  7 19  1  6  0  0  0
 19 20  2  0  0  0  0
 19 21  1  0  0  0  0
 21 22  1  0  0  0  0
M  END
> <Molar mass [g/mol] [MProp:scalar:double]>
303.358

> <Exact mass [Da] [MProp:scalar:double]>
303.14705816

> <Formula>
C17H21NO4

> <Composition>
C (67.31%), H (6.98%), N (4.62%), O (21.10%)

> <Lipinski's rule of five [MProp:scalar:boolean]>
true

> <Atom count [MProp:scalar:integer]>
43

> <Heavy atom count [MProp:scalar:integer]>
22

> <Asymmetric atom count [MProp:scalar:integer]>
4

> <Rotatable bond count [MProp:scalar:integer]>
5

> <Ring count [MProp:scalar:integer]>
3

> <Aromatic ring count [MProp:scalar:integer]>
1

> <Hetero ring count [MProp:scalar:integer]>
2

> <FSP3 [MProp:scalar:double]>
0.53

> <Hydrogen bond donor count [MProp:scalar:integer]>
0

> <Hydrogen bond acceptor count [MProp:scalar:integer]>
3

> <Formal charge [MProp:scalar:integer]>
0

> <Topological polar surface area [A^2] [MProp:scalar:double]>
55.84

> <Polarizability [A^3] [MProp:scalar:double]>
32.17

> <Molar refractivity [cm^3/mol] [MProp:scalar:double]>
81.16

> <Van der Waals volume [A^3] [MProp:scalar:double]>
282.54

> <Minimum projection area [A^2] [MProp:scalar:double]>
52.06

> <Maximum projection area [A^2] [MProp:scalar:double]>
83.67

> <Minimum projection radius [A] [MProp:scalar:double]>
5.42

> <Maximum projection radius [A] [MProp:scalar:double]>
7.12

> <Van der Waals surface area [A^2] [MProp:scalar:double]>
457.09

> <Solvent accessible surface area [A^2] [MProp:scalar:double]>
483.19

> <Strongest acidic pKa>
N/A

> <Strongest basic pKa [MProp:scalar:double]>
8.95

> <Isoelectric point>
N/A

> <Intrinsic solubility [logS] [MProp:scalar:double]>
-2.32

> <Solubility category>
High

> <logP [MProp:scalar:double]>
2.28

> <logD_PH0 [MProp:scalar:double]>
-1.22

> <logD_PH1 [MProp:scalar:double]>
-1.22

> <logD_PH2 [MProp:scalar:double]>
-1.22

> <logD_PH3 [MProp:scalar:double]>
-1.22

> <logD_PH4 [MProp:scalar:double]>
-1.2

> <logD_PH5 [MProp:scalar:double]>
-1.09

> <logD_PH6 [MProp:scalar:double]>
-0.56

> <logD_PH7 [MProp:scalar:double]>
0.34

> <logD_PH8 [MProp:scalar:double]>
1.29

> <logD_PH9 [MProp:scalar:double]>
2.01

> <logD_PH10 [MProp:scalar:double]>
2.25

> <logD_PH11 [MProp:scalar:double]>
2.28

> <logD_PH12 [MProp:scalar:double]>
2.28

> <logD_PH13 [MProp:scalar:double]>
2.28

> <logD_PH14 [MProp:scalar:double]>
2.28

> <HLB [MProp:scalar:double]>
13.66

> <IUPAC name>
methyl (1R,2R,3S,5S)-3-(benzoyloxy)-8-methyl-8-azabicyclo[3.2.1]octane-2-carboxylate

> <SMILES>
COC(=O)[C@@H]1[C@H]2CC[C@@H](C[C@@H]1OC(=O)C1=CC=CC=C1)N2C

> <InChI>
InChI=1S/C17H21NO4/c1-18-12-8-9-13(18)15(17(20)21-2)14(10-12)22-16(19)11-6-4-3-5-7-11/h3-7,12-15H,8-10H2,1-2H3/t12-,13-,14-,15+/m0/s1

> <InChIKey>
ZPUCINDJVBIVPJ-LJISPDSOSA-N

> <Traditional name>
cocaine

> <Common names>
(-)-cocaine; Blow; Bump; C" carrie; COC; Coca; Coke; Cola; D-pseudococaine; Dust; Flex; G-rock; Girl; Hell; Jam; L-cocain; L-cocaine; Lady; Leaf; Line; Rock; Toke; Toot; Yeyo; Zip; badrock; bazooka; benzoylethylecgonine; benzoylmethylecgonine; bernice; bernies; blast; blizzard; bouncing powder; burese; cabello; candy; carrie; caviar; cecil; charlie; chicken scratch; cholly; cocain; cocaina; cocaine; cocaine free base; cocaine-M; cocainum; cocktail; corine; dama blanca; delcaine; depsococaine; dextrocaine; eritroxilina; erytroxylin; flake; florida snow; foo foo; freeze; gold dust; goofball; green gold; happy dust; happy powder; happy trails; heaven; isocaine; isococain; isococaine; kibbles N' bits; kokain; kokan; kokayeen; l-cocaine; methyl benzoylecgonine; moonrocks; neurocaine; pimp's drug; prime time; sleighride; snort; star dust; star-spangled powder; sweet stuff; trails; β-cocain; 可卡因

> <CAS Registry Numbers(R)>
50-36-2

$$$$
Codeine
  Mrv2222 01232613222D          

 22 26  0  0  1  0            999 V2000
   -1.2926    1.0341    0.0000 C   0  0  0  0  0  0  0  0  0  0  0  0
   -0.7132    0.4469    0.0000 N   0  0  0  0  0  0  0  0  0  0  0  0
   -0.9533   -0.3842    0.0000 C   0  0  0  0  0  0  0  0  0  0  0  0
   -0.1481   -0.9069    0.0000 C   0  0  0  0  0  0  0  0  0  0  0  0
    0.7114   -0.6779    0.0000 C   0  0  2  0  0  0  0  0  0  0  0  0
    0.3741   -0.0735    0.0000 C   0  0  2  0  0  0  0  0  0  0  0  0
    0.1278    0.6776    0.0000 C   0  0  1  0  0  0  0  0  0  0  0  0
    0.9237    0.9936    0.0000 C   0  0  0  0  0  0  0  0  0  0  0  0
    1.6258    0.4801    0.0000 C   0  0  0  0  0  0  0  0  0  0  0  0
    1.4685   -0.3571    0.0000 C   0  0  0  0  0  0  0  0  0  0  0  0
    1.9963   -0.9898    0.0000 C   0  0  0  0  0  0  0  0  0  0  0  0
    2.7953   -0.7526    0.0000 C   0  0  0  0  0  0  0  0  0  0  0  0
    3.0223    0.0515    0.0000 C   0  0  0  0  0  0  0  0  0  0  0  0
    2.4410    0.6498    0.0000 C   0  0  0  0  0  0  0  0  0  0  0  0
    3.3826   -1.3320    0.0000 O   0  0  0  0  0  0  0  0  0  0  0  0
    4.1780   -1.1131    0.0000 C   0  0  0  0  0  0  0  0  0  0  0  0
    1.5328   -1.7025    0.0000 O   0  0  0  0  0  0  0  0  0  0  0  0
    0.7075   -1.5154    0.0000 C   0  0  1  0  0  0  0  0  0  0  0  0
   -0.1167   -1.7604    0.0000 C   0  0  2  0  0  0  0  0  0  0  0  0
   -0.7429   -1.1850    0.0000 C   0  0  0  0  0  0  0  0  0  0  0  0
   -0.4085   -0.3330    0.0000 C   0  0  0  0  0  0  0  0  0  0  0  0
   -0.3024   -2.5642    0.0000 O   0  0  0  0  0  0  0  0  0  0  0  0
  1  2  1  0  0  0  0
  2  3  1  0  0  0  0
  3  4  1  0  0  0  0
  5  4  1  0  0  0  0
  5  6  1  0  0  0  0
  6  7  1  0  0  0  0
  7  2  1  6  0  0  0
  7  8  1  0  0  0  0
  8  9  1  0  0  0  0
  9 10  2  0  0  0  0
  5 10  1  6  0  0  0
 10 11  1  0  0  0  0
 11 12  2  0  0  0  0
 12 13  1  0  0  0  0
 13 14  2  0  0  0  0
  9 14  1  0  0  0  0
 12 15  1  0  0  0  0
 15 16  1  0  0  0  0
 11 17  1  0  0  0  0
 18 17  1  1  0  0  0
  5 18  1  0  0  0  0
 18 19  1  0  0  0  0
 19 20  1  0  0  0  0
 20 21  2  0  0  0  0
  6 21  1  1  0  0  0
 19 22  1  1  0  0  0
M  END
> <Molar mass [g/mol] [MProp:scalar:double]>
299.37

> <Exact mass [Da] [MProp:scalar:double]>
299.15214354

> <Formula>
C18H21NO3

> <Composition>
C (72.22%), H (7.07%), N (4.68%), O (16.03%)

> <Lipinski's rule of five [MProp:scalar:boolean]>
true

> <Atom count [MProp:scalar:integer]>
43

> <Heavy atom count [MProp:scalar:integer]>
22

> <Asymmetric atom count [MProp:scalar:integer]>
5

> <Rotatable bond count [MProp:scalar:integer]>
1

> <Ring count [MProp:scalar:integer]>
5

> <Aromatic ring count [MProp:scalar:integer]>
1

> <Hetero ring count [MProp:scalar:integer]>
2

> <FSP3 [MProp:scalar:double]>
0.56

> <Hydrogen bond donor count [MProp:scalar:integer]>
1

> <Hydrogen bond acceptor count [MProp:scalar:integer]>
4

> <Formal charge [MProp:scalar:integer]>
0

> <Topological polar surface area [A^2] [MProp:scalar:double]>
41.93

> <Polarizability [A^3] [MProp:scalar:double]>
32.61

> <Molar refractivity [cm^3/mol] [MProp:scalar:double]>
84.6

> <Van der Waals volume [A^3] [MProp:scalar:double]>
273.3

> <Minimum projection area [A^2] [MProp:scalar:double]>
53.1

> <Maximum projection area [A^2] [MProp:scalar:double]>
74.51

> <Minimum projection radius [A] [MProp:scalar:double]>
4.97

> <Maximum projection radius [A] [MProp:scalar:double]>
6.54

> <Van der Waals surface area [A^2] [MProp:scalar:double]>
425.04

> <Solvent accessible surface area [A^2] [MProp:scalar:double]>
415.94

> <Strongest acidic pKa [MProp:scalar:double]>
13.78

> <Strongest basic pKa [MProp:scalar:double]>
8.89

> <Isoelectric point [MProp:scalar:double]>
11.34

> <Intrinsic solubility [logS] [MProp:scalar:double]>
-1.83

> <Solubility category>
High

> <logP [MProp:scalar:double]>
1.34

> <logD_PH0 [MProp:scalar:double]>
-2.16

> <logD_PH1 [MProp:scalar:double]>
-2.16

> <logD_PH2 [MProp:scalar:double]>
-2.16

> <logD_PH3 [MProp:scalar:double]>
-2.16

> <logD_PH4 [MProp:scalar:double]>
-2.14

> <logD_PH5 [MProp:scalar:double]>
-2.01

> <logD_PH6 [MProp:scalar:double]>
-1.45

> <logD_PH7 [MProp:scalar:double]>
-0.54

> <logD_PH8 [MProp:scalar:double]>
0.4

> <logD_PH9 [MProp:scalar:double]>
1.09

> <logD_PH10 [MProp:scalar:double]>
1.31

> <logD_PH11 [MProp:scalar:double]>
1.34

> <logD_PH12 [MProp:scalar:double]>
1.34

> <logD_PH13 [MProp:scalar:double]>
1.28

> <logD_PH14 [MProp:scalar:double]>
0.92

> <HLB [MProp:scalar:double]>
13.23

> <IUPAC name>
(1S,5R,13R,14S,17R)-10-methoxy-4-methyl-12-oxa-4-azapentacyclo[9.6.1.0¹,¹³.0⁵,¹⁷.0⁷,¹⁸]octadeca-7(18),8,10,15-tetraen-14-ol

> <SMILES>
COC1=C2O[C@H]3[C@@H](O)C=C[C@H]4[C@H]5CC(C=C1)=C2[C@@]34CCN5C

> <InChI>
InChI=1S/C18H21NO3/c1-19-8-7-18-11-4-5-13(20)17(18)22-16-14(21-2)6-3-10(15(16)18)9-12(11)19/h3-6,11-13,17,20H,7-9H2,1-2H3/t11-,12-,13-,17+,18+/m0/s1

> <InChIKey>
OROGSEYTTFOCAN-DNJOTXNNSA-N

> <Traditional name>
codeine

> <Common names>
L-codeine; codein; codeina; codeine anhydrous; codicept; coducept; l-codeine; methylmorphine; morphine 3-methyl ether; morphine monomethyl ether; morphine-3-methyl ether; norcodeine, N-methyl; norcodine, N-methyl; 可待因

> <CAS Registry Numbers(R)>
76-57-3

$$$$
Cotinine
  Mrv2222 01232613222D          

 13 14  0  0  1  0            999 V2000
    0.7145   -0.4125    0.0000 C   0  0  0  0  0  0  0  0  0  0  0  0
    0.7145   -1.2375    0.0000 N   0  0  0  0  0  0  0  0  0  0  0  0
    1.3819   -1.7224    0.0000 C   0  0  1  0  0  0  0  0  0  0  0  0
    1.1270   -2.5070    0.0000 C   0  0  0  0  0  0  0  0  0  0  0  0
    0.3020   -2.5070    0.0000 C   0  0  0  0  0  0  0  0  0  0  0  0
    0.0470   -1.7224    0.0000 C   0  0  0  0  0  0  0  0  0  0  0  0
   -0.7376   -1.4675    0.0000 O   0  0  0  0  0  0  0  0  0  0  0  0
    2.1665   -1.4675    0.0000 C   0  0  0  0  0  0  0  0  0  0  0  0
    2.3381   -0.6605    0.0000 C   0  0  0  0  0  0  0  0  0  0  0  0
    3.1227   -0.4056    0.0000 N   0  0  0  0  0  0  0  0  0  0  0  0
    3.7358   -0.9576    0.0000 C   0  0  0  0  0  0  0  0  0  0  0  0
    3.5642   -1.7646    0.0000 C   0  0  0  0  0  0  0  0  0  0  0  0
    2.7796   -2.0195    0.0000 C   0  0  0  0  0  0  0  0  0  0  0  0
  1  2  1  0  0  0  0
  3  2  1  0  0  0  0
  3  4  1  0  0  0  0
  4  5  1  0  0  0  0
  5  6  1  0  0  0  0
  2  6  1  0  0  0  0
  6  7  2  0  0  0  0
  3  8  1  6  0  0  0
  8  9  2  0  0  0  0
  9 10  1  0  0  0  0
 10 11  2  0  0  0  0
 11 12  1  0  0  0  0
 12 13  2  0  0  0  0
  8 13  1  0  0  0  0
M  END
> <Molar mass [g/mol] [MProp:scalar:double]>
176.219

> <Exact mass [Da] [MProp:scalar:double]>
176.094963014

> <Formula>
C10H12N2O

> <Composition>
C (68.16%), H (6.86%), N (15.90%), O (9.08%)

> <Lipinski's rule of five [MProp:scalar:boolean]>
true

> <Atom count [MProp:scalar:integer]>
25

> <Heavy atom count [MProp:scalar:integer]>
13

> <Asymmetric atom count [MProp:scalar:integer]>
1

> <Rotatable bond count [MProp:scalar:integer]>
1

> <Ring count [MProp:scalar:integer]>
2

> <Aromatic ring count [MProp:scalar:integer]>
1

> <Hetero ring count [MProp:scalar:integer]>
2

> <FSP3 [MProp:scalar:double]>
0.4

> <Hydrogen bond donor count [MProp:scalar:integer]>
0

> <Hydrogen bond acceptor count [MProp:scalar:integer]>
2

> <Formal charge [MProp:scalar:integer]>
0

> <Topological polar surface area [A^2] [MProp:scalar:double]>
33.2

> <Polarizability [A^3] [MProp:scalar:double]>
19.11

> <Molar refractivity [cm^3/mol] [MProp:scalar:double]>
49.28

> <Van der Waals volume [A^3] [MProp:scalar:double]>
165.27

> <Minimum projection area [A^2] [MProp:scalar:double]>
34.56

> <Maximum projection area [A^2] [MProp:scalar:double]>
51.23

> <Minimum projection radius [A] [MProp:scalar:double]>
3.73

> <Maximum projection radius [A] [MProp:scalar:double]>
5.2

> <Van der Waals surface area [A^2] [MProp:scalar:double]>
272.16

> <Solvent accessible surface area [A^2] [MProp:scalar:double]>
324.14

> <Strongest acidic pKa>
N/A

> <Strongest basic pKa [MProp:scalar:double]>
4.79

> <Isoelectric point>
N/A

> <Intrinsic solubility [logS] [MProp:scalar:double]>
-0.54

> <Solubility category>
High

> <logP [MProp:scalar:double]>
0.21

> <logD_PH0 [MProp:scalar:double]>
-2.57

> <logD_PH1 [MProp:scalar:double]>
-1.65

> <logD_PH2 [MProp:scalar:double]>
-0.99

> <logD_PH3 [MProp:scalar:double]>
-0.75

> <logD_PH4 [MProp:scalar:double]>
-0.43

> <logD_PH5 [MProp:scalar:double]>
0.03

> <logD_PH6 [MProp:scalar:double]>
0.19

> <logD_PH7 [MProp:scalar:double]>
0.21

> <logD_PH8 [MProp:scalar:double]>
0.21

> <logD_PH9 [MProp:scalar:double]>
0.21

> <logD_PH10 [MProp:scalar:double]>
0.21

> <logD_PH11 [MProp:scalar:double]>
0.21

> <logD_PH12 [MProp:scalar:double]>
0.21

> <logD_PH13 [MProp:scalar:double]>
0.21

> <logD_PH14 [MProp:scalar:double]>
0.21

> <HLB [MProp:scalar:double]>
12.86

> <IUPAC name>
(5S)-1-methyl-5-(pyridin-3-yl)pyrrolidin-2-one

> <SMILES>
CN1[C@@H](CCC1=O)C1=CN=CC=C1

> <InChI>
InChI=1S/C10H12N2O/c1-12-9(4-5-10(12)13)8-3-2-6-11-7-8/h2-3,6-7,9H,4-5H2,1H3/t9-/m0/s1

> <InChIKey>
UIKROCXWUNQSPJ-VIFPVBQESA-N

> <Traditional name>
cotinine

> <Common names>
cotinine; 可替宁

> <CAS Registry Numbers(R)>
486-56-6

$$$$
Cyantraniliprole
  Mrv2222 01232613222D          

 29 31  0  0  0  0            999 V2000
    0.0000    0.8250    0.0000 C    0  0  0  0  0  0  0  0  0  0  0  0
    0.7145    1.2375    0.0000 C    0  0  0  0  0  0  0  0  0  0  0  0
    0.7145    2.0625    0.0000 C    0  0  0  0  0  0  0  0  0  0  0  0
    1.4289    2.4750    0.0000 C    0  0  0  0  0  0  0  0  0  0  0  0
    2.1434    2.0625    0.0000 C    0  0  0  0  0  0  0  0  0  0  0  0
    2.1434    1.2375    0.0000 C    0  0  0  0  0  0  0  0  0  0  0  0
    1.4289    0.8250    0.0000 C    0  0  0  0  0  0  0  0  0  0  0  0
    1.4289    0.0000    0.0000 N    0  0  0  0  0  0  0  0  0  0  0  0
    0.7145   -0.4125    0.0000 C    0  0  0  0  0  0  0  0  0  0  0  0
    0.0000    0.0000    0.0000 O    0  0  0  0  0  0  0  0  0  0  0  0
    0.7145   -1.2375    0.0000 C    0  0  0  0  0  0  0  0  0  0  0  0
    1.3819   -1.7224    0.0000 C    0  0  0  0  0  0  0  0  0  0  0  0
    1.1270   -2.5070    0.0000 C    0  0  0  0  0  0  0  0  0  0  0  0
    0.3020   -2.5070    0.0000 N    0  0  0  0  0  0  0  0  0  0  0  0
    0.0470   -1.7224    0.0000 N    0  0  0  0  0  0  0  0  0  0  0  0
   -0.7376   -1.4675    0.0000 C    0  0  0  0  0  0  0  0  0  0  0  0
   -1.3507   -2.0195    0.0000 C    0  0  0  0  0  0  0  0  0  0  0  0
   -2.1353   -1.7646    0.0000 C    0  0  0  0  0  0  0  0  0  0  0  0
   -2.3068   -0.9576    0.0000 C    0  0  0  0  0  0  0  0  0  0  0  0
   -1.6937   -0.4056    0.0000 C    0  0  0  0  0  0  0  0  0  0  0  0
   -0.9091   -0.6605    0.0000 N    0  0  0  0  0  0  0  0  0  0  0  0
   -1.1792   -2.8265    0.0000 Cl   0  0  0  0  0  0  0  0  0  0  0  0
    1.6119   -3.1745    0.0000 Br   0  0  0  0  0  0  0  0  0  0  0  0
    2.8579    0.8250    0.0000 C    0  0  0  0  0  0  0  0  0  0  0  0
    2.8579    0.0000    0.0000 O    0  0  0  0  0  0  0  0  0  0  0  0
    3.5724    1.2375    0.0000 N    0  0  0  0  0  0  0  0  0  0  0  0
    4.2868    0.8250    0.0000 C    0  0  0  0  0  0  0  0  0  0  0  0
    1.4289    3.3000    0.0000 C    0  0  0  0  0  0  0  0  0  0  0  0
    1.4289    4.1250    0.0000 N    0  0  0  0  0  0  0  0  0  0  0  0
  1  2  1  0  0  0  0
  2  3  2  0  0  0  0
  3  4  1  0  0  0  0
  4  5  2  0  0  0  0
  5  6  1  0  0  0  0
  6  7  2  0  0  0  0
  2  7  1  0  0  0  0
  7  8  1  0  0  0  0
  8  9  1  0  0  0  0
  9 10  2  0  0  0  0
  9 11  1  0  0  0  0
 11 12  2  0  0  0  0
 12 13  1  0  0  0  0
 13 14  2  0  0  0  0
 14 15  1  0  0  0  0
 11 15  1  0  0  0  0
 15 16  1  0  0  0  0
 16 17  2  0  0  0  0
 17 18  1  0  0  0  0
 18 19  2  0  0  0  0
 19 20  1  0  0  0  0
 20 21  2  0  0  0  0
 16 21  1  0  0  0  0
 17 22  1  0  0  0  0
 13 23  1  0  0  0  0
  6 24  1  0  0  0  0
 24 25  2  0  0  0  0
 24 26  1  0  0  0  0
 26 27  1  0  0  0  0
  4 28  1  0  0  0  0
 28 29  3  0  0  0  0
M  END
> <Molar mass [g/mol] [MProp:scalar:double]>
473.72

> <Exact mass [Da] [MProp:scalar:double]>
472.005014

> <Formula>
C19H14BrClN6O2

> <Composition>
C (48.17%), H (2.98%), Br (16.87%), Cl (7.48%), N (17.74%), O (6.75%)

> <Lipinski's rule of five [MProp:scalar:boolean]>
true

> <Atom count [MProp:scalar:integer]>
43

> <Heavy atom count [MProp:scalar:integer]>
29

> <Asymmetric atom count [MProp:scalar:integer]>
0

> <Rotatable bond count [MProp:scalar:integer]>
4

> <Ring count [MProp:scalar:integer]>
3

> <Aromatic ring count [MProp:scalar:integer]>
3

> <Hetero ring count [MProp:scalar:integer]>
2

> <FSP3 [MProp:scalar:double]>
0.11

> <Hydrogen bond donor count [MProp:scalar:integer]>
2

> <Hydrogen bond acceptor count [MProp:scalar:integer]>
5

> <Formal charge [MProp:scalar:integer]>
0

> <Topological polar surface area [A^2] [MProp:scalar:double]>
112.7

> <Polarizability [A^3] [MProp:scalar:double]>
41.64

> <Molar refractivity [cm^3/mol] [MProp:scalar:double]>
115.99

> <Van der Waals volume [A^3] [MProp:scalar:double]>
342.74

> <Minimum projection area [A^2] [MProp:scalar:double]>
67.86

> <Maximum projection area [A^2] [MProp:scalar:double]>
95.52

> <Minimum projection radius [A] [MProp:scalar:double]>
5.37

> <Maximum projection radius [A] [MProp:scalar:double]>
8.16

> <Van der Waals surface area [A^2] [MProp:scalar:double]>
518.39

> <Solvent accessible surface area [A^2] [MProp:scalar:double]>
566.51

> <Strongest acidic pKa [MProp:scalar:double]>
13.69

> <Strongest basic pKa [MProp:scalar:double]>
1.59

> <Isoelectric point [MProp:scalar:double]>
7.61

> <Intrinsic solubility [logS] [MProp:scalar:double]>
-6.33

> <Solubility category>
Low

> <logP [MProp:scalar:double]>
4.12

> <logD_PH0 [MProp:scalar:double]>
2.58

> <logD_PH1 [MProp:scalar:double]>
3.45

> <logD_PH2 [MProp:scalar:double]>
3.98

> <logD_PH3 [MProp:scalar:double]>
4.1

> <logD_PH4 [MProp:scalar:double]>
4.12

> <logD_PH5 [MProp:scalar:double]>
4.12

> <logD_PH6 [MProp:scalar:double]>
4.12

> <logD_PH7 [MProp:scalar:double]>
4.12

> <logD_PH8 [MProp:scalar:double]>
4.12

> <logD_PH9 [MProp:scalar:double]>
4.12

> <logD_PH10 [MProp:scalar:double]>
4.12

> <logD_PH11 [MProp:scalar:double]>
4.12

> <logD_PH12 [MProp:scalar:double]>
4.11

> <logD_PH13 [MProp:scalar:double]>
4.04

> <logD_PH14 [MProp:scalar:double]>
3.62

> <HLB [MProp:scalar:double]>
16.65

> <IUPAC name>
3-bromo-1-(3-chloropyridin-2-yl)-N-[4-cyano-2-methyl-6-(methylcarbamoyl)phenyl]-1H-pyrazole-5-carboxamide

> <SMILES>
CNC(=O)C1=C(NC(=O)C2=CC(Br)=NN2C2=C(Cl)C=CC=N2)C(C)=CC(=C1)C#N

> <InChI>
InChI=1S/C19H14BrClN6O2/c1-10-6-11(9-22)7-12(18(28)23-2)16(10)25-19(29)14-8-15(20)26-27(14)17-13(21)4-3-5-24-17/h3-8H,1-2H3,(H,23,28)(H,25,29)

> <InChIKey>
DVBUIBGJRQBEDP-UHFFFAOYSA-N

> <Traditional name>
cyantraniliprole

> <Common names>
cyantraniliprole

> <CAS Registry Numbers(R)>
736994-63-1

$$$$
Cyclohexanone
  Mrv2222 01232613222D          

  7  7  0  0  0  0            999 V2000
    0.7145   -0.4125    0.0000 C   0  0  0  0  0  0  0  0  0  0  0  0
    0.0000    0.0000    0.0000 C   0  0  0  0  0  0  0  0  0  0  0  0
    0.0000    0.8250    0.0000 C   0  0  0  0  0  0  0  0  0  0  0  0
    0.7145    1.2375    0.0000 C   0  0  0  0  0  0  0  0  0  0  0  0
    0.7145    2.0625    0.0000 O   0  0  0  0  0  0  0  0  0  0  0  0
    1.4289    0.8250    0.0000 C   0  0  0  0  0  0  0  0  0  0  0  0
    1.4289    0.0000    0.0000 C   0  0  0  0  0  0  0  0  0  0  0  0
  1  2  1  0  0  0  0
  2  3  1  0  0  0  0
  3  4  1  0  0  0  0
  4  5  2  0  0  0  0
  4  6  1  0  0  0  0
  6  7  1  0  0  0  0
  1  7  1  0  0  0  0
M  END
> <Molar mass [g/mol] [MProp:scalar:double]>
98.145

> <Exact mass [Da] [MProp:scalar:double]>
98.073164942

> <Formula>
C6H10O

> <Composition>
C (73.43%), H (10.27%), O (16.30%)

> <Lipinski's rule of five [MProp:scalar:boolean]>
true

> <Atom count [MProp:scalar:integer]>
17

> <Heavy atom count [MProp:scalar:integer]>
7

> <Asymmetric atom count [MProp:scalar:integer]>
0

> <Rotatable bond count [MProp:scalar:integer]>
0

> <Ring count [MProp:scalar:integer]>
1

> <Aromatic ring count [MProp:scalar:integer]>
0

> <Hetero ring count [MProp:scalar:integer]>
0

> <FSP3 [MProp:scalar:double]>
0.83

> <Hydrogen bond donor count [MProp:scalar:integer]>
0

> <Hydrogen bond acceptor count [MProp:scalar:integer]>
1

> <Formal charge [MProp:scalar:integer]>
0

> <Topological polar surface area [A^2] [MProp:scalar:double]>
17.07

> <Polarizability [A^3] [MProp:scalar:double]>
11.12

> <Molar refractivity [cm^3/mol] [MProp:scalar:double]>
28.25

> <Van der Waals volume [A^3] [MProp:scalar:double]>
104.02

> <Minimum projection area [A^2] [MProp:scalar:double]>
27.09

> <Maximum projection area [A^2] [MProp:scalar:double]>
36.49

> <Minimum projection radius [A] [MProp:scalar:double]>
3.69

> <Maximum projection radius [A] [MProp:scalar:double]>
3.84

> <Van der Waals surface area [A^2] [MProp:scalar:double]>
183.18

> <Solvent accessible surface area [A^2] [MProp:scalar:double]>
248.9

> <Strongest acidic pKa>
N/A

> <Strongest basic pKa>
N/A

> <Isoelectric point>
N/A

> <Intrinsic solubility [logS] [MProp:scalar:double]>
-0.79

> <Solubility category>
High

> <logP [MProp:scalar:double]>
1.49

> <logD_PH0 [MProp:scalar:double]>
1.49

> <logD_PH1 [MProp:scalar:double]>
1.49

> <logD_PH2 [MProp:scalar:double]>
1.49

> <logD_PH3 [MProp:scalar:double]>
1.49

> <logD_PH4 [MProp:scalar:double]>
1.49

> <logD_PH5 [MProp:scalar:double]>
1.49

> <logD_PH6 [MProp:scalar:double]>
1.49

> <logD_PH7 [MProp:scalar:double]>
1.49

> <logD_PH8 [MProp:scalar:double]>
1.49

> <logD_PH9 [MProp:scalar:double]>
1.49

> <logD_PH10 [MProp:scalar:double]>
1.49

> <logD_PH11 [MProp:scalar:double]>
1.49

> <logD_PH12 [MProp:scalar:double]>
1.49

> <logD_PH13 [MProp:scalar:double]>
1.49

> <logD_PH14 [MProp:scalar:double]>
1.49

> <HLB [MProp:scalar:double]>
5.06

> <IUPAC name>
cyclohexanone

> <SMILES>
O=C1CCCCC1

> <InChI>
InChI=1S/C6H10O/c7-6-4-2-1-3-5-6/h1-5H2

> <InChIKey>
JHIVVAPYMSGYDF-UHFFFAOYSA-N

> <Traditional name>
cyclohexanone

> <Common names>
ANON; anon; anone; caswell no. 270; cicloesanone; cyclic ketone; cyclohexanon(dutch); cyclohexanone (substance); cyclohexanone homopolymer; cyclohexyl ketone; cykloheksanon; epa pesticide chemical code 025902; hytrol O; hytrol o; hytrolo; ketohexamethylene; nadone; pimelic ketone; pimelin ketone; rcra waste number U057; sextone

> <CAS Registry Numbers(R)>
108-94-1, 9075-99-4

$$$$
Dicamba
  Mrv2222 01232613222D          

 13 13  0  0  0  0            999 V2000
    0.0000    2.4750    0.0000 C    0  0  0  0  0  0  0  0  0  0  0  0
    0.7145    2.0625    0.0000 O    0  0  0  0  0  0  0  0  0  0  0  0
    0.7145    1.2375    0.0000 C    0  0  0  0  0  0  0  0  0  0  0  0
    1.4289    0.8250    0.0000 C    0  0  0  0  0  0  0  0  0  0  0  0
    1.4289    0.0000    0.0000 C    0  0  0  0  0  0  0  0  0  0  0  0
    0.7145   -0.4125    0.0000 C    0  0  0  0  0  0  0  0  0  0  0  0
    0.0000    0.0000    0.0000 C    0  0  0  0  0  0  0  0  0  0  0  0
    0.0000    0.8250    0.0000 C    0  0  0  0  0  0  0  0  0  0  0  0
   -0.7145    1.2375    0.0000 C    0  0  0  0  0  0  0  0  0  0  0  0
   -0.7145    2.0625    0.0000 O    0  0  0  0  0  0  0  0  0  0  0  0
   -1.4289    0.8250    0.0000 O    0  0  0  0  0  0  0  0  0  0  0  0
   -0.7145   -0.4125    0.0000 Cl   0  0  0  0  0  0  0  0  0  0  0  0
    2.1434    1.2375    0.0000 Cl   0  0  0  0  0  0  0  0  0  0  0  0
  1  2  1  0  0  0  0
  2  3  1  0  0  0  0
  3  4  2  0  0  0  0
  4  5  1  0  0  0  0
  5  6  2  0  0  0  0
  6  7  1  0  0  0  0
  7  8  2  0  0  0  0
  3  8  1  0  0  0  0
  8  9  1  0  0  0  0
  9 10  2  0  0  0  0
  9 11  1  0  0  0  0
  7 12  1  0  0  0  0
  4 13  1  0  0  0  0
M  END
> <Molar mass [g/mol] [MProp:scalar:double]>
221.03

> <Exact mass [Da] [MProp:scalar:double]>
219.9693995

> <Formula>
C8H6Cl2O3

> <Composition>
C (43.47%), H (2.74%), Cl (32.08%), O (21.71%)

> <Lipinski's rule of five [MProp:scalar:boolean]>
true

> <Atom count [MProp:scalar:integer]>
19

> <Heavy atom count [MProp:scalar:integer]>
13

> <Asymmetric atom count [MProp:scalar:integer]>
0

> <Rotatable bond count [MProp:scalar:integer]>
2

> <Ring count [MProp:scalar:integer]>
1

> <Aromatic ring count [MProp:scalar:integer]>
1

> <Hetero ring count [MProp:scalar:integer]>
0

> <FSP3 [MProp:scalar:double]>
0.12

> <Hydrogen bond donor count [MProp:scalar:integer]>
1

> <Hydrogen bond acceptor count [MProp:scalar:integer]>
3

> <Formal charge [MProp:scalar:integer]>
0

> <Topological polar surface area [A^2] [MProp:scalar:double]>
46.53

> <Polarizability [A^3] [MProp:scalar:double]>
19.13

> <Molar refractivity [cm^3/mol] [MProp:scalar:double]>
49.39

> <Van der Waals volume [A^3] [MProp:scalar:double]>
164.01

> <Minimum projection area [A^2] [MProp:scalar:double]>
32.28

> <Maximum projection area [A^2] [MProp:scalar:double]>
60.81

> <Minimum projection radius [A] [MProp:scalar:double]>
4.71

> <Maximum projection radius [A] [MProp:scalar:double]>
4.86

> <Van der Waals surface area [A^2] [MProp:scalar:double]>
249.77

> <Solvent accessible surface area [A^2] [MProp:scalar:double]>
353.36

> <Strongest acidic pKa [MProp:scalar:double]>
2.34

> <Strongest basic pKa>
N/A

> <Isoelectric point>
N/A

> <Intrinsic solubility [logS] [MProp:scalar:double]>
-3.07

> <Solubility category>
High

> <logP [MProp:scalar:double]>
2.68

> <logD_PH0 [MProp:scalar:double]>
2.68

> <logD_PH1 [MProp:scalar:double]>
2.66

> <logD_PH2 [MProp:scalar:double]>
2.52

> <logD_PH3 [MProp:scalar:double]>
1.94

> <logD_PH4 [MProp:scalar:double]>
1.02

> <logD_PH5 [MProp:scalar:double]>
0.08

> <logD_PH6 [MProp:scalar:double]>
-0.61

> <logD_PH7 [MProp:scalar:double]>
-0.82

> <logD_PH8 [MProp:scalar:double]>
-0.85

> <logD_PH9 [MProp:scalar:double]>
-0.85

> <logD_PH10 [MProp:scalar:double]>
-0.85

> <logD_PH11 [MProp:scalar:double]>
-0.85

> <logD_PH12 [MProp:scalar:double]>
-0.85

> <logD_PH13 [MProp:scalar:double]>
-0.85

> <logD_PH14 [MProp:scalar:double]>
-0.85

> <HLB [MProp:scalar:double]>
9.0

> <IUPAC name>
3,6-dichloro-2-methoxybenzoic acid

> <SMILES>
COC1=C(Cl)C=CC(Cl)=C1C(O)=O

> <InChI>
InChI=1S/C8H6Cl2O3/c1-13-7-5(10)3-2-4(9)6(7)8(11)12/h2-3H,1H3,(H,11,12)

> <InChIKey>
IWEDIXLBFLAXBO-UHFFFAOYSA-N

> <Traditional name>
dicamba

> <Common names>
dicamba

> <CAS Registry Numbers(R)>
1918-00-9, 62610-39-3, 89300-29-8

$$$$
Dichlobenil
  Mrv2222 01232613222D          

 10 10  0  0  0  0            999 V2000
    1.4289    0.0000    0.0000 C    0  0  0  0  0  0  0  0  0  0  0  0
    0.7145   -0.4125    0.0000 C    0  0  0  0  0  0  0  0  0  0  0  0
    0.0000    0.0000    0.0000 C    0  0  0  0  0  0  0  0  0  0  0  0
    0.0000    0.8250    0.0000 C    0  0  0  0  0  0  0  0  0  0  0  0
    0.7145    1.2375    0.0000 C    0  0  0  0  0  0  0  0  0  0  0  0
    1.4289    0.8250    0.0000 C    0  0  0  0  0  0  0  0  0  0  0  0
    0.7145    2.0625    0.0000 Cl   0  0  0  0  0  0  0  0  0  0  0  0
   -0.7145    1.2375    0.0000 C    0  0  0  0  0  0  0  0  0  0  0  0
   -1.4289    1.6500    0.0000 N    0  0  0  0  0  0  0  0  0  0  0  0
   -0.7145   -0.4125    0.0000 Cl   0  0  0  0  0  0  0  0  0  0  0  0
  1  2  2  0  0  0  0
  2  3  1  0  0  0  0
  3  4  2  0  0  0  0
  4  5  1  0  0  0  0
  5  6  2  0  0  0  0
  1  6  1  0  0  0  0
  5  7  1  0  0  0  0
  4  8  1  0  0  0  0
  8  9  3  0  0  0  0
  3 10  1  0  0  0  0
M  END
> <Molar mass [g/mol] [MProp:scalar:double]>
172.01

> <Exact mass [Da] [MProp:scalar:double]>
170.9642545

> <Formula>
C7H3Cl2N

> <Composition>
C (48.88%), H (1.76%), Cl (41.22%), N (8.14%)

> <Lipinski's rule of five [MProp:scalar:boolean]>
true

> <Atom count [MProp:scalar:integer]>
13

> <Heavy atom count [MProp:scalar:integer]>
10

> <Asymmetric atom count [MProp:scalar:integer]>
0

> <Rotatable bond count [MProp:scalar:integer]>
0

> <Ring count [MProp:scalar:integer]>
1

> <Aromatic ring count [MProp:scalar:integer]>
1

> <Hetero ring count [MProp:scalar:integer]>
0

> <FSP3 [MProp:scalar:double]>
0.0

> <Hydrogen bond donor count [MProp:scalar:integer]>
0

> <Hydrogen bond acceptor count [MProp:scalar:integer]>
1

> <Formal charge [MProp:scalar:integer]>
0

> <Topological polar surface area [A^2] [MProp:scalar:double]>
23.79

> <Polarizability [A^3] [MProp:scalar:double]>
15.97

> <Molar refractivity [cm^3/mol] [MProp:scalar:double]>
41.39

> <Van der Waals volume [A^3] [MProp:scalar:double]>
126.61

> <Minimum projection area [A^2] [MProp:scalar:double]>
24.56

> <Maximum projection area [A^2] [MProp:scalar:double]>
49.86

> <Minimum projection radius [A] [MProp:scalar:double]>
4.07

> <Maximum projection radius [A] [MProp:scalar:double]>
4.53

> <Van der Waals surface area [A^2] [MProp:scalar:double]>
184.57

> <Solvent accessible surface area [A^2] [MProp:scalar:double]>
290.57

> <Strongest acidic pKa>
N/A

> <Strongest basic pKa>
N/A

> <Isoelectric point>
N/A

> <Intrinsic solubility [logS] [MProp:scalar:double]>
-3.21

> <Solubility category>
High

> <logP [MProp:scalar:double]>
3.04

> <logD_PH0 [MProp:scalar:double]>
3.04

> <logD_PH1 [MProp:scalar:double]>
3.04

> <logD_PH2 [MProp:scalar:double]>
3.04

> <logD_PH3 [MProp:scalar:double]>
3.04

> <logD_PH4 [MProp:scalar:double]>
3.04

> <logD_PH5 [MProp:scalar:double]>
3.04

> <logD_PH6 [MProp:scalar:double]>
3.04

> <logD_PH7 [MProp:scalar:double]>
3.04

> <logD_PH8 [MProp:scalar:double]>
3.04

> <logD_PH9 [MProp:scalar:double]>
3.04

> <logD_PH10 [MProp:scalar:double]>
3.04

> <logD_PH11 [MProp:scalar:double]>
3.04

> <logD_PH12 [MProp:scalar:double]>
3.04

> <logD_PH13 [MProp:scalar:double]>
3.04

> <logD_PH14 [MProp:scalar:double]>
3.04

> <HLB [MProp:scalar:double]>
5.52

> <IUPAC name>
2,6-dichlorobenzonitrile

> <SMILES>
ClC1=CC=CC(Cl)=C1C#N

> <InChI>
InChI=1S/C7H3Cl2N/c8-6-2-1-3-7(9)5(6)4-10/h1-3H

> <InChIKey>
YOYAIZYFCNQIRF-UHFFFAOYSA-N

> <Traditional name>
prefix D

> <Common names>
C7H3cl2N; DBN; DU-sprex; casoron; casoron 133; casoron G-10; casoron G-4; casoron G20 SR; casoron W-50; casoron gsr; caswell no. 297; cyclomec; dbn (pesticide); dbn (the herbicide); decabane; dichlobanil; dichlobenil; dyclomec; epa pesticide chemical code 027401; niagara 5,996; norosac; prefix D; surfassol

> <CAS Registry Numbers(R)>
1194-65-6, 104809-79-2

$$$$
Diclofenac
  Mrv2222 01232613222D          

 19 20  0  0  0  0            999 V2000
    1.4289   -2.4750    0.0000 C    0  0  0  0  0  0  0  0  0  0  0  0
    2.1434   -2.8875    0.0000 C    0  0  0  0  0  0  0  0  0  0  0  0
    2.8579   -2.4750    0.0000 C    0  0  0  0  0  0  0  0  0  0  0  0
    2.8579   -1.6500    0.0000 C    0  0  0  0  0  0  0  0  0  0  0  0
    2.1434   -1.2375    0.0000 C    0  0  0  0  0  0  0  0  0  0  0  0
    1.4289   -1.6500    0.0000 C    0  0  0  0  0  0  0  0  0  0  0  0
    2.1434   -0.4125    0.0000 C    0  0  0  0  0  0  0  0  0  0  0  0
    2.8579    0.0000    0.0000 C    0  0  0  0  0  0  0  0  0  0  0  0
    2.8579    0.8250    0.0000 O    0  0  0  0  0  0  0  0  0  0  0  0
    3.5724   -0.4125    0.0000 O    0  0  0  0  0  0  0  0  0  0  0  0
    3.5724   -1.2375    0.0000 N    0  0  0  0  0  0  0  0  0  0  0  0
    4.2868   -1.6500    0.0000 C    0  0  0  0  0  0  0  0  0  0  0  0
    5.0013   -1.2375    0.0000 C    0  0  0  0  0  0  0  0  0  0  0  0
    5.7158   -1.6500    0.0000 C    0  0  0  0  0  0  0  0  0  0  0  0
    5.7158   -2.4750    0.0000 C    0  0  0  0  0  0  0  0  0  0  0  0
    5.0013   -2.8875    0.0000 C    0  0  0  0  0  0  0  0  0  0  0  0
    4.2868   -2.4750    0.0000 C    0  0  0  0  0  0  0  0  0  0  0  0
    3.5724   -2.8875    0.0000 Cl   0  0  0  0  0  0  0  0  0  0  0  0
    5.0013   -0.4125    0.0000 Cl   0  0  0  0  0  0  0  0  0  0  0  0
  1  2  2  0  0  0  0
  2  3  1  0  0  0  0
  3  4  2  0  0  0  0
  4  5  1  0  0  0  0
  5  6  2  0  0  0  0
  1  6  1  0  0  0  0
  5  7  1  0  0  0  0
  7  8  1  0  0  0  0
  8  9  2  0  0  0  0
  8 10  1  0  0  0  0
  4 11  1  0  0  0  0
 11 12  1  0  0  0  0
 12 13  2  0  0  0  0
 13 14  1  0  0  0  0
 14 15  2  0  0  0  0
 15 16  1  0  0  0  0
 16 17  2  0  0  0  0
 12 17  1  0  0  0  0
 17 18  1  0  0  0  0
 13 19  1  0  0  0  0
M  END
> <Molar mass [g/mol] [MProp:scalar:double]>
296.15

> <Exact mass [Da] [MProp:scalar:double]>
295.016684

> <Formula>
C14H11Cl2NO2

> <Composition>
C (56.78%), H (3.74%), Cl (23.94%), N (4.73%), O (10.80%)

> <Lipinski's rule of five [MProp:scalar:boolean]>
true

> <Atom count [MProp:scalar:integer]>
30

> <Heavy atom count [MProp:scalar:integer]>
19

> <Asymmetric atom count [MProp:scalar:integer]>
0

> <Rotatable bond count [MProp:scalar:integer]>
4

> <Ring count [MProp:scalar:integer]>
2

> <Aromatic ring count [MProp:scalar:integer]>
2

> <Hetero ring count [MProp:scalar:integer]>
0

> <FSP3 [MProp:scalar:double]>
0.07

> <Hydrogen bond donor count [MProp:scalar:integer]>
2

> <Hydrogen bond acceptor count [MProp:scalar:integer]>
3

> <Formal charge [MProp:scalar:integer]>
0

> <Topological polar surface area [A^2] [MProp:scalar:double]>
49.33

> <Polarizability [A^3] [MProp:scalar:double]>
29.03

> <Molar refractivity [cm^3/mol] [MProp:scalar:double]>
75.46

> <Van der Waals volume [A^3] [MProp:scalar:double]>
236.95

> <Minimum projection area [A^2] [MProp:scalar:double]>
45.3

> <Maximum projection area [A^2] [MProp:scalar:double]>
72.09

> <Minimum projection radius [A] [MProp:scalar:double]>
4.72

> <Maximum projection radius [A] [MProp:scalar:double]>
6.27

> <Van der Waals surface area [A^2] [MProp:scalar:double]>
360.28

> <Solvent accessible surface area [A^2] [MProp:scalar:double]>
424.95

> <Strongest acidic pKa [MProp:scalar:double]>
4.01

> <Strongest basic pKa [MProp:scalar:double]>
-1.08

> <Isoelectric point [MProp:scalar:double]>
1.47

> <Intrinsic solubility [logS] [MProp:scalar:double]>
-4.3

> <Solubility category>
Moderate

> <logP [MProp:scalar:double]>
4.26

> <logD_PH0 [MProp:scalar:double]>
4.22

> <logD_PH1 [MProp:scalar:double]>
4.25

> <logD_PH2 [MProp:scalar:double]>
4.25

> <logD_PH3 [MProp:scalar:double]>
4.22

> <logD_PH4 [MProp:scalar:double]>
3.96

> <logD_PH5 [MProp:scalar:double]>
3.23

> <logD_PH6 [MProp:scalar:double]>
2.27

> <logD_PH7 [MProp:scalar:double]>
1.38

> <logD_PH8 [MProp:scalar:double]>
0.86

> <logD_PH9 [MProp:scalar:double]>
0.74

> <logD_PH10 [MProp:scalar:double]>
0.73

> <logD_PH11 [MProp:scalar:double]>
0.73

> <logD_PH12 [MProp:scalar:double]>
0.73

> <logD_PH13 [MProp:scalar:double]>
0.73

> <logD_PH14 [MProp:scalar:double]>
0.73

> <HLB [MProp:scalar:double]>
6.08

> <IUPAC name>
2-{2-[(2,6-dichlorophenyl)amino]phenyl}acetic acid

> <SMILES>
OC(=O)CC1=CC=CC=C1NC1=C(Cl)C=CC=C1Cl

> <InChI>
InChI=1S/C14H11Cl2NO2/c15-10-5-3-6-11(16)14(10)17-12-7-2-1-4-9(12)8-13(18)19/h1-7,17H,8H2,(H,18,19)

> <InChIKey>
DCOPUUMXTXDBNB-UHFFFAOYSA-N

> <Traditional name>
diclofenac

> <Common names>
C14H10Cl2KNO2; C14H10Cl2NNaO2; C14H10Cl2NO2.Na; DIC075V; ProSorb-D; allvoran; anthraxiton; apo-diclo; assaren; batafil; benfofen; blesin; delimon; delphimix; dichlofenac; dichlofenal; dichronic; diclo-phlogont; diclo-puren; diclobenin; diclofenac; diclofenac (substance); diclofenac acid; diclofenac potassium (product); diclofenac potassium (substance); diclofenac potassium preparation; diclofenac preparation; diclofenac product; diclofenac product (product); diclofenac sodium (product); diclofenac sodium (substance); diclofenac sodium preparation; diclofenac sodium product; diclofenac, sodium; diclofenaco; diclofenacum; diclonate P; diclophenac; diclophenac sodium; diclord; dicloreum; dicrofenac; dolobasan; duravolten; dyloject; ecofenac; effekton; feloran; kriplex; neriodin; novapirina; novo-difenac; novo-difenac SR; nu-diclo; orthofen; orthophen; ortofen; pennsaid; primofenac; prophenatin; rhumalgan; solaraze; solaraze T; tsudohmin; urigon; valetan; voldal; voltaren; voltaren SR; voltaren ophtha; voltaren ophthalmic; voltaren rapide; voltaren-XR; voltarene; voltarol; vonafec; vurdon; xenid

> <CAS Registry Numbers(R)>
15307-86-5, 128402-48-2

$$$$
Diphenylamine
  Mrv2222 01232613222D          

 13 14  0  0  0  0            999 V2000
    2.1434   -2.8875    0.0000 C   0  0  0  0  0  0  0  0  0  0  0  0
    1.4289   -2.4750    0.0000 C   0  0  0  0  0  0  0  0  0  0  0  0
    1.4289   -1.6500    0.0000 C   0  0  0  0  0  0  0  0  0  0  0  0
    2.1434   -1.2375    0.0000 C   0  0  0  0  0  0  0  0  0  0  0  0
    2.8579   -1.6500    0.0000 C   0  0  0  0  0  0  0  0  0  0  0  0
    2.8579   -2.4750    0.0000 C   0  0  0  0  0  0  0  0  0  0  0  0
    2.1434   -0.4125    0.0000 N   0  0  0  0  0  0  0  0  0  0  0  0
    2.8579    0.0000    0.0000 C   0  0  0  0  0  0  0  0  0  0  0  0
    2.8579    0.8250    0.0000 C   0  0  0  0  0  0  0  0  0  0  0  0
    3.5724    1.2375    0.0000 C   0  0  0  0  0  0  0  0  0  0  0  0
    4.2868    0.8250    0.0000 C   0  0  0  0  0  0  0  0  0  0  0  0
    4.2868    0.0000    0.0000 C   0  0  0  0  0  0  0  0  0  0  0  0
    3.5724   -0.4125    0.0000 C   0  0  0  0  0  0  0  0  0  0  0  0
  1  2  2  0  0  0  0
  2  3  1  0  0  0  0
  3  4  2  0  0  0  0
  4  5  1  0  0  0  0
  5  6  2  0  0  0  0
  1  6  1  0  0  0  0
  4  7  1  0  0  0  0
  7  8  1  0  0  0  0
  8  9  2  0  0  0  0
  9 10  1  0  0  0  0
 10 11  2  0  0  0  0
 11 12  1  0  0  0  0
 12 13  2  0  0  0  0
  8 13  1  0  0  0  0
M  END
> <Molar mass [g/mol] [MProp:scalar:double]>
169.227

> <Exact mass [Da] [MProp:scalar:double]>
169.089149358

> <Formula>
C12H11N

> <Composition>
C (85.17%), H (6.55%), N (8.28%)

> <Lipinski's rule of five [MProp:scalar:boolean]>
true

> <Atom count [MProp:scalar:integer]>
24

> <Heavy atom count [MProp:scalar:integer]>
13

> <Asymmetric atom count [MProp:scalar:integer]>
0

> <Rotatable bond count [MProp:scalar:integer]>
2

> <Ring count [MProp:scalar:integer]>
2

> <Aromatic ring count [MProp:scalar:integer]>
2

> <Hetero ring count [MProp:scalar:integer]>
0

> <FSP3 [MProp:scalar:double]>
0.0

> <Hydrogen bond donor count [MProp:scalar:integer]>
1

> <Hydrogen bond acceptor count [MProp:scalar:integer]>
1

> <Formal charge [MProp:scalar:integer]>
0

> <Topological polar surface area [A^2] [MProp:scalar:double]>
12.03

> <Polarizability [A^3] [MProp:scalar:double]>
21.14

> <Molar refractivity [cm^3/mol] [MProp:scalar:double]>
54.54

> <Van der Waals volume [A^3] [MProp:scalar:double]>
164.18

> <Minimum projection area [A^2] [MProp:scalar:double]>
29.53

> <Maximum projection area [A^2] [MProp:scalar:double]>
63.21

> <Minimum projection radius [A] [MProp:scalar:double]>
3.9

> <Maximum projection radius [A] [MProp:scalar:double]>
5.92

> <Van der Waals surface area [A^2] [MProp:scalar:double]>
262.69

> <Solvent accessible surface area [A^2] [MProp:scalar:double]>
368.6

> <Strongest acidic pKa>
N/A

> <Strongest basic pKa [MProp:scalar:double]>
0.78

> <Isoelectric point>
N/A

> <Intrinsic solubility [logS] [MProp:scalar:double]>
-3.14

> <Solubility category>
High

> <logP [MProp:scalar:double]>
3.41

> <logD_PH0 [MProp:scalar:double]>
2.56

> <logD_PH1 [MProp:scalar:double]>
3.21

> <logD_PH2 [MProp:scalar:double]>
3.39

> <logD_PH3 [MProp:scalar:double]>
3.41

> <logD_PH4 [MProp:scalar:double]>
3.41

> <logD_PH5 [MProp:scalar:double]>
3.41

> <logD_PH6 [MProp:scalar:double]>
3.41

> <logD_PH7 [MProp:scalar:double]>
3.41

> <logD_PH8 [MProp:scalar:double]>
3.41

> <logD_PH9 [MProp:scalar:double]>
3.41

> <logD_PH10 [MProp:scalar:double]>
3.41

> <logD_PH11 [MProp:scalar:double]>
3.41

> <logD_PH12 [MProp:scalar:double]>
3.41

> <logD_PH13 [MProp:scalar:double]>
3.41

> <logD_PH14 [MProp:scalar:double]>
3.41

> <HLB [MProp:scalar:double]>
4.03

> <IUPAC name>
N-phenylaniline

> <SMILES>
N(C1=CC=CC=C1)C1=CC=CC=C1

> <InChI>
InChI=1S/C12H11N/c1-3-7-11(8-4-1)13-12-9-5-2-6-10-12/h1-10,13H

> <InChIKey>
DMBHHRLKUKUOEG-UHFFFAOYSA-N

> <Traditional name>
diphenylamine

> <Common names>
N-fenylanilin; big dipper; caswell no. 398; deccoscald 282; difenylamin; diphenylamine (substance); diphenylamine, when used as a fragrance ingredient; epa pesticide chemical code 038501; naugalube 428L; no-scald; no-scald dpa 283; scaldip; shield dpa

> <CAS Registry Numbers(R)>
122-39-4, 25656-57-9

$$$$
Diuron
  Mrv2222 01232613222D          

 14 14  0  0  0  0            999 V2000
   -0.7145    3.7125    0.0000 C    0  0  0  0  0  0  0  0  0  0  0  0
    0.0000    3.3000    0.0000 N    0  0  0  0  0  0  0  0  0  0  0  0
    0.7145    3.7125    0.0000 C    0  0  0  0  0  0  0  0  0  0  0  0
    0.0000    2.4750    0.0000 C    0  0  0  0  0  0  0  0  0  0  0  0
   -0.7145    2.0625    0.0000 O    0  0  0  0  0  0  0  0  0  0  0  0
    0.7145    2.0625    0.0000 N    0  0  0  0  0  0  0  0  0  0  0  0
    0.7145    1.2375    0.0000 C    0  0  0  0  0  0  0  0  0  0  0  0
    1.4289    0.8250    0.0000 C    0  0  0  0  0  0  0  0  0  0  0  0
    1.4289    0.0000    0.0000 C    0  0  0  0  0  0  0  0  0  0  0  0
    0.7145   -0.4125    0.0000 C    0  0  0  0  0  0  0  0  0  0  0  0
    0.0000    0.0000    0.0000 C    0  0  0  0  0  0  0  0  0  0  0  0
    0.0000    0.8250    0.0000 C    0  0  0  0  0  0  0  0  0  0  0  0
    0.7145   -1.2375    0.0000 Cl   0  0  0  0  0  0  0  0  0  0  0  0
    2.1434   -0.4125    0.0000 Cl   0  0  0  0  0  0  0  0  0  0  0  0
  1  2  1  0  0  0  0
  2  3  1  0  0  0  0
  2  4  1  0  0  0  0
  4  5  2  0  0  0  0
  4  6  1  0  0  0  0
  6  7  1  0  0  0  0
  7  8  2  0  0  0  0
  8  9  1  0  0  0  0
  9 10  2  0  0  0  0
 10 11  1  0  0  0  0
 11 12  2  0  0  0  0
  7 12  1  0  0  0  0
 10 13  1  0  0  0  0
  9 14  1  0  0  0  0
M  END
> <Molar mass [g/mol] [MProp:scalar:double]>
233.09

> <Exact mass [Da] [MProp:scalar:double]>
232.0170184

> <Formula>
C9H10Cl2N2O

> <Composition>
C (46.38%), H (4.32%), Cl (30.42%), N (12.02%), O (6.86%)

> <Lipinski's rule of five [MProp:scalar:boolean]>
true

> <Atom count [MProp:scalar:integer]>
24

> <Heavy atom count [MProp:scalar:integer]>
14

> <Asymmetric atom count [MProp:scalar:integer]>
0

> <Rotatable bond count [MProp:scalar:integer]>
1

> <Ring count [MProp:scalar:integer]>
1

> <Aromatic ring count [MProp:scalar:integer]>
1

> <Hetero ring count [MProp:scalar:integer]>
0

> <FSP3 [MProp:scalar:double]>
0.22

> <Hydrogen bond donor count [MProp:scalar:integer]>
1

> <Hydrogen bond acceptor count [MProp:scalar:integer]>
1

> <Formal charge [MProp:scalar:integer]>
0

> <Topological polar surface area [A^2] [MProp:scalar:double]>
32.34

> <Polarizability [A^3] [MProp:scalar:double]>
22.02

> <Molar refractivity [cm^3/mol] [MProp:scalar:double]>
59.0

> <Van der Waals volume [A^3] [MProp:scalar:double]>
187.06

> <Minimum projection area [A^2] [MProp:scalar:double]>
27.81

> <Maximum projection area [A^2] [MProp:scalar:double]>
69.92

> <Minimum projection radius [A] [MProp:scalar:double]>
3.93

> <Maximum projection radius [A] [MProp:scalar:double]>
6.5

> <Van der Waals surface area [A^2] [MProp:scalar:double]>
295.9

> <Solvent accessible surface area [A^2] [MProp:scalar:double]>
402.13

> <Strongest acidic pKa [MProp:scalar:double]>
13.18

> <Strongest basic pKa>
N/A

> <Isoelectric point>
N/A

> <Intrinsic solubility [logS] [MProp:scalar:double]>
-3.11

> <Solubility category>
High

> <logP [MProp:scalar:double]>
2.53

> <logD_PH0 [MProp:scalar:double]>
2.53

> <logD_PH1 [MProp:scalar:double]>
2.53

> <logD_PH2 [MProp:scalar:double]>
2.53

> <logD_PH3 [MProp:scalar:double]>
2.53

> <logD_PH4 [MProp:scalar:double]>
2.53

> <logD_PH5 [MProp:scalar:double]>
2.53

> <logD_PH6 [MProp:scalar:double]>
2.53

> <logD_PH7 [MProp:scalar:double]>
2.53

> <logD_PH8 [MProp:scalar:double]>
2.53

> <logD_PH9 [MProp:scalar:double]>
2.53

> <logD_PH10 [MProp:scalar:double]>
2.53

> <logD_PH11 [MProp:scalar:double]>
2.53

> <logD_PH12 [MProp:scalar:double]>
2.51

> <logD_PH13 [MProp:scalar:double]>
2.33

> <logD_PH14 [MProp:scalar:double]>
1.78

> <HLB [MProp:scalar:double]>
12.49

> <IUPAC name>
1-(3,4-dichlorophenyl)-3,3-dimethylurea

> <SMILES>
CN(C)C(=O)NC1=CC(Cl)=C(Cl)C=C1

> <InChI>
InChI=1S/C9H10Cl2N2O/c1-13(2)9(14)12-6-3-4-7(10)8(11)5-6/h3-5H,1-2H3,(H,12,14)

> <InChIKey>
XMTQQYYKAHVGBJ-UHFFFAOYSA-N

> <Traditional name>
dynex

> <Common names>
DCMU; diuron; diuron (iso); dynex; marmer

> <CAS Registry Numbers(R)>
330-54-1

$$$$
Ethylenediaminetetraaceticacid
  Mrv2222 01232613222D          

 20 19  0  0  0  0            999 V2000
    5.3328   -0.4027    0.0000 C   0  0  0  0  0  0  0  0  0  0  0  0
    5.0627   -1.1822    0.0000 C   0  0  0  0  0  0  0  0  0  0  0  0
    4.2526   -1.3381    0.0000 N   0  0  0  0  0  0  0  0  0  0  0  0
    3.9825   -2.1177    0.0000 C   0  0  0  0  0  0  0  0  0  0  0  0
    4.5226   -2.7413    0.0000 C   0  0  0  0  0  0  0  0  0  0  0  0
    5.3328   -2.5854    0.0000 O   0  0  0  0  0  0  0  0  0  0  0  0
    4.2526   -3.5209    0.0000 O   0  0  0  0  0  0  0  0  0  0  0  0
    3.7125   -0.7145    0.0000 C   0  0  0  0  0  0  0  0  0  0  0  0
    2.9024   -0.8704    0.0000 C   0  0  0  0  0  0  0  0  0  0  0  0
    2.6323   -1.6499    0.0000 O   0  0  0  0  0  0  0  0  0  0  0  0
    2.3623   -0.2467    0.0000 O   0  0  0  0  0  0  0  0  0  0  0  0
    6.1429   -0.2467    0.0000 N   0  0  0  0  0  0  0  0  0  0  0  0
    6.4129    0.5328    0.0000 C   0  0  0  0  0  0  0  0  0  0  0  0
    5.8729    1.1565    0.0000 C   0  0  0  0  0  0  0  0  0  0  0  0
    6.1429    1.9360    0.0000 O   0  0  0  0  0  0  0  0  0  0  0  0
    5.0627    1.0005    0.0000 O   0  0  0  0  0  0  0  0  0  0  0  0
    6.6830   -0.8704    0.0000 C   0  0  0  0  0  0  0  0  0  0  0  0
    7.4931   -0.7145    0.0000 C   0  0  0  0  0  0  0  0  0  0  0  0
    7.7632    0.0651    0.0000 O   0  0  0  0  0  0  0  0  0  0  0  0
    8.0332   -1.3381    0.0000 O   0  0  0  0  0  0  0  0  0  0  0  0
  1  2  1  0  0  0  0
  2  3  1  0  0  0  0
  3  4  1  0  0  0  0
  4  5  1  0  0  0  0
  5  6  2  0  0  0  0
  5  7  1  0  0  0  0
  3  8  1  0  0  0  0
  8  9  1  0  0  0  0
  9 10  2  0  0  0  0
  9 11  1  0  0  0  0
  1 12  1  0  0  0  0
 12 13  1  0  0  0  0
 13 14  1  0  0  0  0
 14 15  2  0  0  0  0
 14 16  1  0  0  0  0
 12 17  1  0  0  0  0
 17 18  1  0  0  0  0
 18 19  2  0  0  0  0
 18 20  1  0  0  0  0
M  END
> <Molar mass [g/mol] [MProp:scalar:double]>
292.244

> <Exact mass [Da] [MProp:scalar:double]>
292.090665483

> <Formula>
C10H16N2O8

> <Composition>
C (41.10%), H (5.52%), N (9.59%), O (43.80%)

> <Lipinski's rule of five [MProp:scalar:boolean]>
true

> <Atom count [MProp:scalar:integer]>
36

> <Heavy atom count [MProp:scalar:integer]>
20

> <Asymmetric atom count [MProp:scalar:integer]>
0

> <Rotatable bond count [MProp:scalar:integer]>
11

> <Ring count [MProp:scalar:integer]>
0

> <Aromatic ring count [MProp:scalar:integer]>
0

> <Hetero ring count [MProp:scalar:integer]>
0

> <FSP3 [MProp:scalar:double]>
0.6

> <Hydrogen bond donor count [MProp:scalar:integer]>
4

> <Hydrogen bond acceptor count [MProp:scalar:integer]>
10

> <Formal charge [MProp:scalar:integer]>
0

> <Topological polar surface area [A^2] [MProp:scalar:double]>
155.68

> <Polarizability [A^3] [MProp:scalar:double]>
24.69

> <Molar refractivity [cm^3/mol] [MProp:scalar:double]>
62.35

> <Van der Waals volume [A^3] [MProp:scalar:double]>
250.67

> <Minimum projection area [A^2] [MProp:scalar:double]>
48.09

> <Maximum projection area [A^2] [MProp:scalar:double]>
77.43

> <Minimum projection radius [A] [MProp:scalar:double]>
5.55

> <Maximum projection radius [A] [MProp:scalar:double]>
7.19

> <Van der Waals surface area [A^2] [MProp:scalar:double]>
413.46

> <Solvent accessible surface area [A^2] [MProp:scalar:double]>
471.13

> <Strongest acidic pKa [MProp:scalar:double]>
3.05

> <Strongest basic pKa [MProp:scalar:double]>
1.63

> <Isoelectric point [MProp:scalar:double]>
2.15

> <Intrinsic solubility [logS] [MProp:scalar:double]>
0.53

> <Solubility category>
High

> <logP [MProp:scalar:double]>
-1.88

> <logD_PH0 [MProp:scalar:double]>
-3.7

> <logD_PH1 [MProp:scalar:double]>
-2.7

> <logD_PH2 [MProp:scalar:double]>
-2.15

> <logD_PH3 [MProp:scalar:double]>
-2.32

> <logD_PH4 [MProp:scalar:double]>
-3.78

> <logD_PH5 [MProp:scalar:double]>
-6.83

> <logD_PH6 [MProp:scalar:double]>
-10.57

> <logD_PH7 [MProp:scalar:double]>
-13.89

> <logD_PH8 [MProp:scalar:double]>
-15.58

> <logD_PH9 [MProp:scalar:double]>
-15.95

> <logD_PH10 [MProp:scalar:double]>
-15.99

> <logD_PH11 [MProp:scalar:double]>
-16.0

> <logD_PH12 [MProp:scalar:double]>
-16.0

> <logD_PH13 [MProp:scalar:double]>
-16.0

> <logD_PH14 [MProp:scalar:double]>
-16.0

> <HLB [MProp:scalar:double]>
26.81

> <IUPAC name>
2-({2-[bis(carboxymethyl)amino]ethyl}(carboxymethyl)amino)acetic acid

> <SMILES>
OC(=O)CN(CCN(CC(O)=O)CC(O)=O)CC(O)=O

> <InChI>
InChI=1S/C10H16N2O8/c13-7(14)3-11(4-8(15)16)1-2-12(5-9(17)18)6-10(19)20/h1-6H2,(H,13,14)(H,15,16)(H,17,18)(H,19,20)

> <InChIKey>
KCXVZYZYPLLWCC-UHFFFAOYSA-N

> <Traditional name>
edetic acid

> <Common names>
(ethylenedinitrilo)tetraacetic acid; (ethylenedinitrilo)tetraacetic acid calcium disodium salt; C10H12caN2na2O8; CaEDTA; Calcium-EDTA; EDT; EDTA; H4edta; acid, edetic; acid, ethylenediaminetetraacetic; acid, ethylenedinitrilotetraacetic; acide edetique; acide ethylenediaminetetracetique; acido edetico; acidum edeticum; adsorbonac; antalin; antallin; calciedetate de sodium; calcioedetato sodico; calcitetracemate disodium; calcium disodium (ethylenedinitrilo)tetraacetate; calcium disodium chelate ethylenediaminetetraacetic acid; calcium disodium edathamil; calcium disodium edetate; calcium disodium edetate (jan); calcium disodium ethylendiaminetetraacetate; calcium disodium ethylenediamine tetraacetic acid; calcium disodium ethylenediaminetetraacetate; calcium disodium versenate (TN); calcium edetate; calcium edetate de sodium; calcium edta; calcium salt edetic acid; calcium sodium edta; calcium tetacine; calcium titriplex; caswell no. 438; ccris 946; celon A; celon ath; cheelox; cheelox BF acid; cheladrate; chelaton; chelaton 3; chelest 3A; chemcolox 340; chromium edta; chromium salt edetic acid; clewat taa; complexon II; copper edta; coprin; dicobalt edta; dinatrium calcium edeticum; dinitrilotetraacetate, disodium ethylene; dinitrilotetraacetate, ethylene; dipotassium salt edetic acid; disodium ((ethylenedinitrilo)tetraacetato)calciate; disodium calcitetracemate; disodium calcium edta; disodium calcium ethylenediaminetetraacetate; disodium calcium salt ethylene diamine tetraacetic acid; disodium cobalt edta; disodium edetate; disodium ethylene dinitrilotetraacetate; disodium monocalcium edta; disodium salt edetic acid; dissolvine E; distannous edta; edathamil; edathamil calcium disodium; edathamil disodium; edetamin; edetamine; edetate; edetate (product); edetate (substance); edetate calcium; edetate calcium disodium (anhydrous); edetate calcium disodium (product); edetate calcium disodium (substance); edetate calcium disodium (usp); edetate calcium disodium anhydrous; edetate calcium disodium preparation; edetate disodium (product); edetate disodium (substance); edetate disodium calcium; edetate disodium preparation; edetate preparation; edetate, calcium disodium; edetates; edetato sodico calcico; edetic acid; edetic acid calcium disodium salt; edetic acid, calcium salt; edetic acid, calcium, sodium salt; edetic acid, chromium salt; edetic acid, dipotassium salt; edetic acid, disodium salt; edetic acid, disodium salt, dihydrate; edetic acid, disodium, magnesium salt; edetic acid, disodium, monopotassium salt; edetic acid, magnesium salt; edetic acid, monopotassium salt; edetic acid, monosodium salt; edetic acid, potassium salt; edetic acid, sodium salt; edta; edta (chelating agent); edta acid; edta calcium; edta calcium disodium salt; edta disodium calcium salt; edta preparation; edta, chromium; edta, copper; edta, dicobalt; edta, disodium; edta, distannous; edta, gallium; edta, ion(4-); edta, magnesium disodium; edta, potassium; edta, stannous; edta,calcium; edta,calcium disodium; edta-calcium sodium; edtacal; endrate; epa pesticide chemical code 039101; erbium edetate; ethylene diamine tetraacetic acid, disodium calcium salt; ethylene dinitrilotetraacetate; ethylene dinitrilotetraacetate, disodium; ethylenediamine tetraacetic acid; ethylenediaminetetraacetate; ethylenediaminetetraacetic acid; ethylenediaminetetraacetic acid calcium disodium salt; ethylenediaminetetraacetic acid calcium disodium salt (1:1:2); ethylenediaminetetraacetic acid, calcium disodium chelate; ethylenediaminetetracetic acid calcium sodium salt (1:1:2); ethylenedinitrilotetraacetic acid; europium edetate; gadolinium edta; gallium edta; gluma cleanser; hamp-ene acid; havidote; holmium edetate; komplexon II; kyselina ethylendiamintetraoctova; lanthanum edetate; ledclair; lutetium edetate; magnesium salt edetic acid; metal chelating agent; metaquest A; monocalcium disodium edta; monopotassium salt edetic acid; monosodium salt edetic acid; mosatil; natrii calcii edetas; neodymium edetate; nervanaid B acid; nullapon B acid; nullapon BF acid; perma kleer 50 acid; potassium edta; potassium salt edetic acid; potassium/k edta; praseodymium edetate; quastal special; questex 4H; rikelate calcium; samarium edetate; sequestrene AA; sequestric acid; sequestrol; sodium (calciedetate de); sodium calciumedetate; sodium salt edetic acid; sormetal; stannous edta; tetacin; tetacin-calcium; tetacine, calcium; tetazine; tetracemate; tetrine acid; thulium edetate; titriplex; titriplex II; trilon BS; trilon BW; universne acid; versenate; versene; versene CA; versene acid; vinkeil 100; warkeelate acid

> <CAS Registry Numbers(R)>
60-00-4, 470462-56-7, 139-33-3, 53632-26-1, 688-55-1, 124949-23-1

$$$$
Estradiol
  Mrv2222 01232613222D          

 20 23  0  0  1  0            999 V2000
    4.3228   -0.9107    0.0000 C   0  0  0  0  0  0  0  0  0  0  0  0
    3.9629   -0.1684    0.0000 C   0  0  2  0  0  0  0  0  0  0  0  0
    3.4311   -0.7991    0.0000 C   0  0  0  0  0  0  0  0  0  0  0  0
    2.6190   -0.6539    0.0000 C   0  0  0  0  0  0  0  0  0  0  0  0
    2.3387    0.1221    0.0000 C   0  0  1  0  0  0  0  0  0  0  0  0
    2.8705    0.7528    0.0000 C   0  0  2  0  0  0  0  0  0  0  0  0
    3.6826    0.6076    0.0000 C   0  0  2  0  0  0  0  0  0  0  0  0
    4.3340    1.1139    0.0000 C   0  0  0  0  0  0  0  0  0  0  0  0
    5.0168    0.6509    0.0000 C   0  0  0  0  0  0  0  0  0  0  0  0
    4.7875   -0.1416    0.0000 C   0  0  2  0  0  0  0  0  0  0  0  0
    5.2939   -0.7929    0.0000 O   0  0  0  0  0  0  0  0  0  0  0  0
    2.5902    1.5287    0.0000 C   0  0  0  0  0  0  0  0  0  0  0  0
    1.7781    1.6739    0.0000 C   0  0  0  0  0  0  0  0  0  0  0  0
    1.2463    1.0432    0.0000 C   0  0  0  0  0  0  0  0  0  0  0  0
    1.5266    0.2673    0.0000 C   0  0  0  0  0  0  0  0  0  0  0  0
    0.9948   -0.3634    0.0000 C   0  0  0  0  0  0  0  0  0  0  0  0
    0.1827   -0.2182    0.0000 C   0  0  0  0  0  0  0  0  0  0  0  0
   -0.0976    0.5577    0.0000 C   0  0  0  0  0  0  0  0  0  0  0  0
    0.4342    1.1884    0.0000 C   0  0  0  0  0  0  0  0  0  0  0  0
   -0.9098    0.7029    0.0000 O   0  0  0  0  0  0  0  0  0  0  0  0
  2  1  1  6  0  0  0
  2  3  1  0  0  0  0
  3  4  1  0  0  0  0
  5  4  1  6  0  0  0
  6  5  1  0  0  0  0
  7  6  1  0  0  0  0
  2  7  1  0  0  0  0
  7  8  1  6  0  0  0
  8  9  1  0  0  0  0
 10  9  1  0  0  0  0
  2 10  1  0  0  0  0
 10 11  1  6  0  0  0
  6 12  1  1  0  0  0
 12 13  1  0  0  0  0
 13 14  1  0  0  0  0
 14 15  2  0  0  0  0
  5 15  1  0  0  0  0
 15 16  1  0  0  0  0
 16 17  2  0  0  0  0
 17 18  1  0  0  0  0
 18 19  2  0  0  0  0
 14 19  1  0  0  0  0
 18 20  1  0  0  0  0
M  END
> <Molar mass [g/mol] [MProp:scalar:double]>
272.388

> <Exact mass [Da] [MProp:scalar:double]>
272.177630013

> <Formula>
C18H24O2

> <Composition>
C (79.37%), H (8.88%), O (11.75%)

> <Lipinski's rule of five [MProp:scalar:boolean]>
true

> <Atom count [MProp:scalar:integer]>
44

> <Heavy atom count [MProp:scalar:integer]>
20

> <Asymmetric atom count [MProp:scalar:integer]>
5

> <Rotatable bond count [MProp:scalar:integer]>
0

> <Ring count [MProp:scalar:integer]>
4

> <Aromatic ring count [MProp:scalar:integer]>
1

> <Hetero ring count [MProp:scalar:integer]>
0

> <FSP3 [MProp:scalar:double]>
0.67

> <Hydrogen bond donor count [MProp:scalar:integer]>
2

> <Hydrogen bond acceptor count [MProp:scalar:integer]>
2

> <Formal charge [MProp:scalar:integer]>
0

> <Topological polar surface area [A^2] [MProp:scalar:double]>
40.46

> <Polarizability [A^3] [MProp:scalar:double]>
31.31

> <Molar refractivity [cm^3/mol] [MProp:scalar:double]>
79.9

> <Van der Waals volume [A^3] [MProp:scalar:double]>
269.86

> <Minimum projection area [A^2] [MProp:scalar:double]>
39.98

> <Maximum projection area [A^2] [MProp:scalar:double]>
84.87

> <Minimum projection radius [A] [MProp:scalar:double]>
4.27

> <Maximum projection radius [A] [MProp:scalar:double]>
7.29

> <Van der Waals surface area [A^2] [MProp:scalar:double]>
436.59

> <Solvent accessible surface area [A^2] [MProp:scalar:double]>
395.1

> <Strongest acidic pKa [MProp:scalar:double]>
10.33

> <Strongest basic pKa [MProp:scalar:double]>
-0.88

> <Isoelectric point [MProp:scalar:double]>
4.72

> <Intrinsic solubility [logS] [MProp:scalar:double]>
-3.99

> <Solubility category>
Moderate

> <logP [MProp:scalar:double]>
3.75

> <logD_PH0 [MProp:scalar:double]>
3.71

> <logD_PH1 [MProp:scalar:double]>
3.74

> <logD_PH2 [MProp:scalar:double]>
3.75

> <logD_PH3 [MProp:scalar:double]>
3.75

> <logD_PH4 [MProp:scalar:double]>
3.75

> <logD_PH5 [MProp:scalar:double]>
3.75

> <logD_PH6 [MProp:scalar:double]>
3.75

> <logD_PH7 [MProp:scalar:double]>
3.75

> <logD_PH8 [MProp:scalar:double]>
3.74

> <logD_PH9 [MProp:scalar:double]>
3.73

> <logD_PH10 [MProp:scalar:double]>
3.58

> <logD_PH11 [MProp:scalar:double]>
3.0

> <logD_PH12 [MProp:scalar:double]>
2.16

> <logD_PH13 [MProp:scalar:double]>
1.63

> <logD_PH14 [MProp:scalar:double]>
1.5

> <HLB [MProp:scalar:double]>
3.79

> <IUPAC name>
(1S,3aS,3bR,9bS,11aS)-11a-methyl-1H,2H,3H,3aH,3bH,4H,5H,9bH,10H,11H,11aH-cyclopenta[a]phenanthrene-1,7-diol

> <SMILES>
C[C@]12CC[C@H]3[C@@H](CCC4=C3C=CC(O)=C4)[C@@H]1CC[C@@H]2O

> <InChI>
InChI=1S/C18H24O2/c1-18-9-8-14-13-5-3-12(19)10-11(13)2-4-15(14)16(18)6-7-17(18)20/h3,5,10,14-17,19-20H,2,4,6-9H2,1H3/t14-,15-,16-,17-,18-/m1/s1

> <InChIKey>
VOXZDWNPVJITMN-ZBRFXRBCSA-N

> <Traditional name>
estradiol

> <Common names>
17b-oestradiol; D-estradiol; D-oestradiol; Vivelle-DOT; cis-estradiol; cis-oestradiol; dihydrofollicular hormone; dihydrofolliculin; dihydroxyesterin; dihydroxyestrin; dihydroxyoestrin; estrace; estradiol; estradiol (medication); estradiol-17β; oestradiol; β-estradiol; 雌二醇

> <CAS Registry Numbers(R)>
50-28-2, 17916-67-5

$$$$
Estriol
  Mrv2222 01232613222D          

 21 24  0  0  1  0            999 V2000
    4.3228   -0.9107    0.0000 C   0  0  0  0  0  0  0  0  0  0  0  0
    3.9629   -0.1684    0.0000 C   0  0  2  0  0  0  0  0  0  0  0  0
    3.4311   -0.7991    0.0000 C   0  0  0  0  0  0  0  0  0  0  0  0
    2.6190   -0.6539    0.0000 C   0  0  0  0  0  0  0  0  0  0  0  0
    2.3387    0.1221    0.0000 C   0  0  1  0  0  0  0  0  0  0  0  0
    2.8705    0.7528    0.0000 C   0  0  2  0  0  0  0  0  0  0  0  0
    3.6826    0.6076    0.0000 C   0  0  2  0  0  0  0  0  0  0  0  0
    4.3340    1.1139    0.0000 C   0  0  0  0  0  0  0  0  0  0  0  0
    5.0168    0.6509    0.0000 C   0  0  2  0  0  0  0  0  0  0  0  0
    4.7875   -0.1416    0.0000 C   0  0  2  0  0  0  0  0  0  0  0  0
    5.2939   -0.7929    0.0000 O   0  0  0  0  0  0  0  0  0  0  0  0
    5.7927    0.9312    0.0000 O   0  0  0  0  0  0  0  0  0  0  0  0
    2.5902    1.5287    0.0000 C   0  0  0  0  0  0  0  0  0  0  0  0
    1.7781    1.6739    0.0000 C   0  0  0  0  0  0  0  0  0  0  0  0
    1.2463    1.0432    0.0000 C   0  0  0  0  0  0  0  0  0  0  0  0
    1.5266    0.2673    0.0000 C   0  0  0  0  0  0  0  0  0  0  0  0
    0.9948   -0.3634    0.0000 C   0  0  0  0  0  0  0  0  0  0  0  0
    0.1827   -0.2182    0.0000 C   0  0  0  0  0  0  0  0  0  0  0  0
   -0.0976    0.5577    0.0000 C   0  0  0  0  0  0  0  0  0  0  0  0
    0.4342    1.1884    0.0000 C   0  0  0  0  0  0  0  0  0  0  0  0
   -0.9098    0.7029    0.0000 O   0  0  0  0  0  0  0  0  0  0  0  0
  2  1  1  6  0  0  0
  2  3  1  0  0  0  0
  3  4  1  0  0  0  0
  5  4  1  6  0  0  0
  6  5  1  0  0  0  0
  7  6  1  0  0  0  0
  2  7  1  0  0  0  0
  7  8  1  6  0  0  0
  9  8  1  0  0  0  0
 10  9  1  0  0  0  0
  2 10  1  0  0  0  0
 10 11  1  6  0  0  0
  9 12  1  1  0  0  0
  6 13  1  1  0  0  0
 13 14  1  0  0  0  0
 14 15  1  0  0  0  0
 15 16  2  0  0  0  0
  5 16  1  0  0  0  0
 16 17  1  0  0  0  0
 17 18  2  0  0  0  0
 18 19  1  0  0  0  0
 19 20  2  0  0  0  0
 15 20  1  0  0  0  0
 19 21  1  0  0  0  0
M  END
> <Molar mass [g/mol] [MProp:scalar:double]>
288.387

> <Exact mass [Da] [MProp:scalar:double]>
288.172544633

> <Formula>
C18H24O3

> <Composition>
C (74.97%), H (8.39%), O (16.64%)

> <Lipinski's rule of five [MProp:scalar:boolean]>
true

> <Atom count [MProp:scalar:integer]>
45

> <Heavy atom count [MProp:scalar:integer]>
21

> <Asymmetric atom count [MProp:scalar:integer]>
6

> <Rotatable bond count [MProp:scalar:integer]>
0

> <Ring count [MProp:scalar:integer]>
4

> <Aromatic ring count [MProp:scalar:integer]>
1

> <Hetero ring count [MProp:scalar:integer]>
0

> <FSP3 [MProp:scalar:double]>
0.67

> <Hydrogen bond donor count [MProp:scalar:integer]>
3

> <Hydrogen bond acceptor count [MProp:scalar:integer]>
3

> <Formal charge [MProp:scalar:integer]>
0

> <Topological polar surface area [A^2] [MProp:scalar:double]>
60.69

> <Polarizability [A^3] [MProp:scalar:double]>
31.93

> <Molar refractivity [cm^3/mol] [MProp:scalar:double]>
81.27

> <Van der Waals volume [A^3] [MProp:scalar:double]>
278.41

> <Minimum projection area [A^2] [MProp:scalar:double]>
39.92

> <Maximum projection area [A^2] [MProp:scalar:double]>
88.32

> <Minimum projection radius [A] [MProp:scalar:double]>
4.28

> <Maximum projection radius [A] [MProp:scalar:double]>
7.27

> <Van der Waals surface area [A^2] [MProp:scalar:double]>
444.72

> <Solvent accessible surface area [A^2] [MProp:scalar:double]>
398.51

> <Strongest acidic pKa [MProp:scalar:double]>
10.33

> <Strongest basic pKa>
N/A

> <Isoelectric point>
N/A

> <Intrinsic solubility [logS] [MProp:scalar:double]>
-3.63

> <Solubility category>
High

> <logP [MProp:scalar:double]>
2.67

> <logD_PH0 [MProp:scalar:double]>
2.67

> <logD_PH1 [MProp:scalar:double]>
2.67

> <logD_PH2 [MProp:scalar:double]>
2.67

> <logD_PH3 [MProp:scalar:double]>
2.67

> <logD_PH4 [MProp:scalar:double]>
2.67

> <logD_PH5 [MProp:scalar:double]>
2.67

> <logD_PH6 [MProp:scalar:double]>
2.67

> <logD_PH7 [MProp:scalar:double]>
2.67

> <logD_PH8 [MProp:scalar:double]>
2.67

> <logD_PH9 [MProp:scalar:double]>
2.65

> <logD_PH10 [MProp:scalar:double]>
2.5

> <logD_PH11 [MProp:scalar:double]>
1.92

> <logD_PH12 [MProp:scalar:double]>
1.08

> <logD_PH13 [MProp:scalar:double]>
0.46

> <logD_PH14 [MProp:scalar:double]>
-0.12

> <HLB [MProp:scalar:double]>
5.66

> <IUPAC name>
(1R,2R,3aS,3bR,9bS,11aS)-11a-methyl-1H,2H,3H,3aH,3bH,4H,5H,9bH,10H,11H,11aH-cyclopenta[a]phenanthrene-1,2,7-triol

> <SMILES>
C[C@]12CC[C@H]3[C@@H](CCC4=C3C=CC(O)=C4)[C@@H]1C[C@@H](O)[C@@H]2O

> <InChI>
InChI=1S/C18H24O3/c1-18-7-6-13-12-5-3-11(19)8-10(12)2-4-14(13)15(18)9-16(20)17(18)21/h3,5,8,13-17,19-21H,2,4,6-7,9H2,1H3/t13-,14-,15-,16-,17-,18-/m1/s1

> <InChIKey>
PROQIPRRNZUXQM-ZXXIGWHRSA-N

> <Traditional name>
estriol

> <Common names>
16-α,17-β-oestriol; 16-α-hydroxyestradiol; 16-α-hydroxyoestradiol; 16α,17β-oestriol; 16α-hydroxy-17β-estradiol; 16α-hydroxyestradiol; 16α-hydroxyoestradiol; 3,16α,17β-estriol; ESL; estratriol; estriel; estriol (medication); estriolo; oestriol; oestriolum; ovestrion; tridestrin; trihydroxyestrin; 雌三醇

> <CAS Registry Numbers(R)>
50-27-1, 1306-04-3

$$$$
Ethylbenzene
  Mrv2222 01232613222D          

  8  8  0  0  0  0            999 V2000
    0.0000    2.4750    0.0000 C   0  0  0  0  0  0  0  0  0  0  0  0
    0.7145    2.0625    0.0000 C   0  0  0  0  0  0  0  0  0  0  0  0
    0.7145    1.2375    0.0000 C   0  0  0  0  0  0  0  0  0  0  0  0
    1.4289    0.8250    0.0000 C   0  0  0  0  0  0  0  0  0  0  0  0
    1.4289    0.0000    0.0000 C   0  0  0  0  0  0  0  0  0  0  0  0
    0.7145   -0.4125    0.0000 C   0  0  0  0  0  0  0  0  0  0  0  0
    0.0000    0.0000    0.0000 C   0  0  0  0  0  0  0  0  0  0  0  0
    0.0000    0.8250    0.0000 C   0  0  0  0  0  0  0  0  0  0  0  0
  1  2  1  0  0  0  0
  2  3  1  0  0  0  0
  3  4  2  0  0  0  0
  4  5  1  0  0  0  0
  5  6  2  0  0  0  0
  6  7  1  0  0  0  0
  7  8  2  0  0  0  0
  3  8  1  0  0  0  0
M  END
> <Molar mass [g/mol] [MProp:scalar:double]>
106.168

> <Exact mass [Da] [MProp:scalar:double]>
106.078250322

> <Formula>
C8H10

> <Composition>
C (90.51%), H (9.49%)

> <Lipinski's rule of five [MProp:scalar:boolean]>
true

> <Atom count [MProp:scalar:integer]>
18

> <Heavy atom count [MProp:scalar:integer]>
8

> <Asymmetric atom count [MProp:scalar:integer]>
0

> <Rotatable bond count [MProp:scalar:integer]>
1

> <Ring count [MProp:scalar:integer]>
1

> <Aromatic ring count [MProp:scalar:integer]>
1

> <Hetero ring count [MProp:scalar:integer]>
0

> <FSP3 [MProp:scalar:double]>
0.25

> <Hydrogen bond donor count [MProp:scalar:integer]>
0

> <Hydrogen bond acceptor count [MProp:scalar:integer]>
0

> <Formal charge [MProp:scalar:integer]>
0

> <Topological polar surface area [A^2] [MProp:scalar:double]>
0.0

> <Polarizability [A^3] [MProp:scalar:double]>
14.01

> <Molar refractivity [cm^3/mol] [MProp:scalar:double]>
35.7

> <Van der Waals volume [A^3] [MProp:scalar:double]>
115.87

> <Minimum projection area [A^2] [MProp:scalar:double]>
25.04

> <Maximum projection area [A^2] [MProp:scalar:double]>
42.53

> <Minimum projection radius [A] [MProp:scalar:double]>
3.36

> <Maximum projection radius [A] [MProp:scalar:double]>
4.72

> <Van der Waals surface area [A^2] [MProp:scalar:double]>
198.54

> <Solvent accessible surface area [A^2] [MProp:scalar:double]>
305.63

> <Strongest acidic pKa>
N/A

> <Strongest basic pKa>
N/A

> <Isoelectric point>
N/A

> <Intrinsic solubility [logS] [MProp:scalar:double]>
-2.36

> <Solubility category>
High

> <logP [MProp:scalar:double]>
2.93

> <logD_PH0 [MProp:scalar:double]>
2.93

> <logD_PH1 [MProp:scalar:double]>
2.93

> <logD_PH2 [MProp:scalar:double]>
2.93

> <logD_PH3 [MProp:scalar:double]>
2.93

> <logD_PH4 [MProp:scalar:double]>
2.93

> <logD_PH5 [MProp:scalar:double]>
2.93

> <logD_PH6 [MProp:scalar:double]>
2.93

> <logD_PH7 [MProp:scalar:double]>
2.93

> <logD_PH8 [MProp:scalar:double]>
2.93

> <logD_PH9 [MProp:scalar:double]>
2.93

> <logD_PH10 [MProp:scalar:double]>
2.93

> <logD_PH11 [MProp:scalar:double]>
2.93

> <logD_PH12 [MProp:scalar:double]>
2.93

> <logD_PH13 [MProp:scalar:double]>
2.93

> <logD_PH14 [MProp:scalar:double]>
2.93

> <HLB [MProp:scalar:double]>
2.62

> <IUPAC name>
ethylbenzene

> <SMILES>
CCC1=CC=CC=C1

> <InChI>
InChI=1S/C8H10/c1-2-8-6-4-3-5-7-8/h3-7H,2H2,1H3

> <InChIKey>
YNQLUTRBYVCPMQ-UHFFFAOYSA-N

> <Traditional name>
ethylbenzene

> <Common names>
aethylbenzol; ccris 916; ethylbenzeen; ethylbenzene (substance); ethylenzene; etilbenzene; etylobenzen; hsdb 84

> <CAS Registry Numbers(R)>
100-41-4

$$$$
Fipronil
  Mrv2222 01232613222D          

 26 27  0  0  0  0            999 V2000
    2.0367    4.3527    0.0000 C    0  0  0  0  0  0  0  0  0  0  0  0
    2.7512    4.7652    0.0000 C    0  0  0  0  0  0  0  0  0  0  0  0
    3.4656    4.3527    0.0000 C    0  0  0  0  0  0  0  0  0  0  0  0
    3.4656    3.5277    0.0000 C    0  0  0  0  0  0  0  0  0  0  0  0
    2.7512    3.1152    0.0000 C    0  0  0  0  0  0  0  0  0  0  0  0
    2.0367    3.5277    0.0000 C    0  0  0  0  0  0  0  0  0  0  0  0
    1.3222    3.1152    0.0000 Cl   0  0  0  0  0  0  0  0  0  0  0  0
    2.7512    2.2902    0.0000 N    0  0  0  0  0  0  0  0  0  0  0  0
    3.4186    1.8053    0.0000 C    0  0  0  0  0  0  0  0  0  0  0  0
    3.1637    1.0206    0.0000 C    0  0  0  0  0  0  0  0  0  0  0  0
    2.3387    1.0206    0.0000 C    0  0  0  0  0  0  0  0  0  0  0  0
    2.0837    1.8053    0.0000 N    0  0  0  0  0  0  0  0  0  0  0  0
    1.8538    0.3532    0.0000 C    0  0  0  0  0  0  0  0  0  0  0  0
    1.3688   -0.3142    0.0000 N    0  0  0  0  0  0  0  0  0  0  0  0
    3.6486    0.3532    0.0000 S    0  0  0  0  0  0  0  0  0  0  0  0
    4.4691    0.4394    0.0000 O    0  0  0  0  0  0  0  0  0  0  0  0
    3.3130   -0.4005    0.0000 C    0  0  0  0  0  0  0  0  0  0  0  0
    2.9775   -1.1542    0.0000 F    0  0  0  0  0  0  0  0  0  0  0  0
    4.0667   -0.7360    0.0000 F    0  0  0  0  0  0  0  0  0  0  0  0
    2.5594   -0.0649    0.0000 F    0  0  0  0  0  0  0  0  0  0  0  0
    4.2032    2.0602    0.0000 N    0  0  0  0  0  0  0  0  0  0  0  0
    4.1801    3.1152    0.0000 Cl   0  0  0  0  0  0  0  0  0  0  0  0
    2.7512    5.5902    0.0000 C    0  0  0  0  0  0  0  0  0  0  0  0
    2.7512    6.4152    0.0000 F    0  0  0  0  0  0  0  0  0  0  0  0
    3.5762    5.5902    0.0000 F    0  0  0  0  0  0  0  0  0  0  0  0
    1.9262    5.5902    0.0000 F    0  0  0  0  0  0  0  0  0  0  0  0
  1  2  2  0  0  0  0
  2  3  1  0  0  0  0
  3  4  2  0  0  0  0
  4  5  1  0  0  0  0
  5  6  2  0  0  0  0
  1  6  1  0  0  0  0
  6  7  1  0  0  0  0
  5  8  1  0  0  0  0
  8  9  1  0  0  0  0
  9 10  2  0  0  0  0
 10 11  1  0  0  0  0
 11 12  2  0  0  0  0
  8 12  1  0  0  0  0
 11 13  1  0  0  0  0
 13 14  3  0  0  0  0
 10 15  1  0  0  0  0
 15 16  2  0  0  0  0
 15 17  1  0  0  0  0
 17 18  1  0  0  0  0
 17 19  1  0  0  0  0
 17 20  1  0  0  0  0
  9 21  1  0  0  0  0
  4 22  1  0  0  0  0
  2 23  1  0  0  0  0
 23 24  1  0  0  0  0
 23 25  1  0  0  0  0
 23 26  1  0  0  0  0
M  END
> <Molar mass [g/mol] [MProp:scalar:double]>
437.14

> <Exact mass [Da] [MProp:scalar:double]>
435.9387063

> <Formula>
C12H4Cl2F6N4OS

> <Composition>
C (32.97%), H (0.92%), Cl (16.22%), F (26.08%), N (12.82%), O (3.66%), S (7.33%)

> <Lipinski's rule of five [MProp:scalar:boolean]>
true

> <Atom count [MProp:scalar:integer]>
30

> <Heavy atom count [MProp:scalar:integer]>
26

> <Asymmetric atom count [MProp:scalar:integer]>
1

> <Rotatable bond count [MProp:scalar:integer]>
3

> <Ring count [MProp:scalar:integer]>
2

> <Aromatic ring count [MProp:scalar:integer]>
2

> <Hetero ring count [MProp:scalar:integer]>
1

> <FSP3 [MProp:scalar:double]>
0.17

> <Hydrogen bond donor count [MProp:scalar:integer]>
1

> <Hydrogen bond acceptor count [MProp:scalar:integer]>
4

> <Formal charge [MProp:scalar:integer]>
0

> <Topological polar surface area [A^2] [MProp:scalar:double]>
84.7

> <Polarizability [A^3] [MProp:scalar:double]>
30.8

> <Molar refractivity [cm^3/mol] [MProp:scalar:double]>
83.66

> <Van der Waals volume [A^3] [MProp:scalar:double]>
278.97

> <Minimum projection area [A^2] [MProp:scalar:double]>
45.27

> <Maximum projection area [A^2] [MProp:scalar:double]>
87.0

> <Minimum projection radius [A] [MProp:scalar:double]>
4.58

> <Maximum projection radius [A] [MProp:scalar:double]>
7.35

> <Van der Waals surface area [A^2] [MProp:scalar:double]>
419.83

> <Solvent accessible surface area [A^2] [MProp:scalar:double]>
502.55

> <Strongest acidic pKa>
N/A

> <Strongest basic pKa [MProp:scalar:double]>
0.18

> <Isoelectric point>
N/A

> <Intrinsic solubility [logS] [MProp:scalar:double]>
-5.96

> <Solubility category>
Low

> <logP [MProp:scalar:double]>
4.49

> <logD_PH0 [MProp:scalar:double]>
4.09

> <logD_PH1 [MProp:scalar:double]>
4.43

> <logD_PH2 [MProp:scalar:double]>
4.48

> <logD_PH3 [MProp:scalar:double]>
4.49

> <logD_PH4 [MProp:scalar:double]>
4.49

> <logD_PH5 [MProp:scalar:double]>
4.49

> <logD_PH6 [MProp:scalar:double]>
4.49

> <logD_PH7 [MProp:scalar:double]>
4.49

> <logD_PH8 [MProp:scalar:double]>
4.49

> <logD_PH9 [MProp:scalar:double]>
4.49

> <logD_PH10 [MProp:scalar:double]>
4.49

> <logD_PH11 [MProp:scalar:double]>
4.49

> <logD_PH12 [MProp:scalar:double]>
4.49

> <logD_PH13 [MProp:scalar:double]>
4.49

> <logD_PH14 [MProp:scalar:double]>
4.49

> <HLB [MProp:scalar:double]>
5.56

> <IUPAC name>
5-amino-1-[2,6-dichloro-4-(trifluoromethyl)phenyl]-4-trifluoromethanesulfinyl-1H-pyrazole-3-carbonitrile

> <SMILES>
NC1=C(C(=NN1C1=C(Cl)C=C(C=C1Cl)C(F)(F)F)C#N)S(=O)C(F)(F)F

> <InChI>
InChI=1/C12H4Cl2F6N4OS/c13-5-1-4(11(15,16)17)2-6(14)8(5)24-10(22)9(7(3-21)23-24)26(25)12(18,19)20/h1-2H,22H2

> <InChIKey>
ZOCSXAVNDGMNBV-UHFFFAOYNA-N

> <Traditional name>
fipronil

> <Common names>
C12H4cl2F6N4OS; fipronil; regent

> <CAS Registry Numbers(R)>
120068-37-3

$$$$
Fipronilsulfone
  Mrv2222 01232613222D          

 27 28  0  0  0  0            999 V2000
    2.0367    4.3527    0.0000 C    0  0  0  0  0  0  0  0  0  0  0  0
    2.7512    4.7652    0.0000 C    0  0  0  0  0  0  0  0  0  0  0  0
    3.4656    4.3527    0.0000 C    0  0  0  0  0  0  0  0  0  0  0  0
    3.4656    3.5277    0.0000 C    0  0  0  0  0  0  0  0  0  0  0  0
    2.7512    3.1152    0.0000 C    0  0  0  0  0  0  0  0  0  0  0  0
    2.0367    3.5277    0.0000 C    0  0  0  0  0  0  0  0  0  0  0  0
    1.3222    3.1152    0.0000 Cl   0  0  0  0  0  0  0  0  0  0  0  0
    2.7512    2.2902    0.0000 N    0  0  0  0  0  0  0  0  0  0  0  0
    3.4186    1.8053    0.0000 C    0  0  0  0  0  0  0  0  0  0  0  0
    3.1637    1.0206    0.0000 C    0  0  0  0  0  0  0  0  0  0  0  0
    2.3387    1.0206    0.0000 C    0  0  0  0  0  0  0  0  0  0  0  0
    2.0837    1.8053    0.0000 N    0  0  0  0  0  0  0  0  0  0  0  0
    1.8538    0.3532    0.0000 C    0  0  0  0  0  0  0  0  0  0  0  0
    1.3688   -0.3142    0.0000 N    0  0  0  0  0  0  0  0  0  0  0  0
    3.6486    0.3532    0.0000 S    0  0  0  0  0  0  0  0  0  0  0  0
    4.3160    0.8381    0.0000 O    0  0  0  0  0  0  0  0  0  0  0  0
    2.9812   -0.1317    0.0000 O    0  0  0  0  0  0  0  0  0  0  0  0
    4.1335   -0.3142    0.0000 C    0  0  0  0  0  0  0  0  0  0  0  0
    4.6184   -0.9817    0.0000 F    0  0  0  0  0  0  0  0  0  0  0  0
    4.8010    0.1707    0.0000 F    0  0  0  0  0  0  0  0  0  0  0  0
    3.4661   -0.7992    0.0000 F    0  0  0  0  0  0  0  0  0  0  0  0
    4.2032    2.0602    0.0000 N    0  0  0  0  0  0  0  0  0  0  0  0
    4.1801    3.1152    0.0000 Cl   0  0  0  0  0  0  0  0  0  0  0  0
    2.7512    5.5902    0.0000 C    0  0  0  0  0  0  0  0  0  0  0  0
    2.7512    6.4152    0.0000 F    0  0  0  0  0  0  0  0  0  0  0  0
    3.5762    5.5902    0.0000 F    0  0  0  0  0  0  0  0  0  0  0  0
    1.9262    5.5902    0.0000 F    0  0  0  0  0  0  0  0  0  0  0  0
  1  2  2  0  0  0  0
  2  3  1  0  0  0  0
  3  4  2  0  0  0  0
  4  5  1  0  0  0  0
  5  6  2  0  0  0  0
  1  6  1  0  0  0  0
  6  7  1  0  0  0  0
  5  8  1  0  0  0  0
  8  9  1  0  0  0  0
  9 10  2  0  0  0  0
 10 11  1  0  0  0  0
 11 12  2  0  0  0  0
  8 12  1  0  0  0  0
 11 13  1  0  0  0  0
 13 14  3  0  0  0  0
 10 15  1  0  0  0  0
 15 16  2  0  0  0  0
 15 17  2  0  0  0  0
 15 18  1  0  0  0  0
 18 19  1  0  0  0  0
 18 20  1  0  0  0  0
 18 21  1  0  0  0  0
  9 22  1  0  0  0  0
  4 23  1  0  0  0  0
  2 24  1  0  0  0  0
 24 25  1  0  0  0  0
 24 26  1  0  0  0  0
 24 27  1  0  0  0  0
M  END
> <Molar mass [g/mol] [MProp:scalar:double]>
453.14

> <Exact mass [Da] [MProp:scalar:double]>
451.9336209

> <Formula>
C12H4Cl2F6N4O2S

> <Composition>
C (31.81%), H (0.89%), Cl (15.65%), F (25.16%), N (12.36%), O (7.06%), S (7.08%)

> <Lipinski's rule of five [MProp:scalar:boolean]>
true

> <Atom count [MProp:scalar:integer]>
31

> <Heavy atom count [MProp:scalar:integer]>
27

> <Asymmetric atom count [MProp:scalar:integer]>
0

> <Rotatable bond count [MProp:scalar:integer]>
3

> <Ring count [MProp:scalar:integer]>
2

> <Aromatic ring count [MProp:scalar:integer]>
2

> <Hetero ring count [MProp:scalar:integer]>
1

> <FSP3 [MProp:scalar:double]>
0.17

> <Hydrogen bond donor count [MProp:scalar:integer]>
1

> <Hydrogen bond acceptor count [MProp:scalar:integer]>
5

> <Formal charge [MProp:scalar:integer]>
0

> <Topological polar surface area [A^2] [MProp:scalar:double]>
101.77

> <Polarizability [A^3] [MProp:scalar:double]>
31.49

> <Molar refractivity [cm^3/mol] [MProp:scalar:double]>
83.14

> <Van der Waals volume [A^3] [MProp:scalar:double]>
287.38

> <Minimum projection area [A^2] [MProp:scalar:double]>
48.66

> <Maximum projection area [A^2] [MProp:scalar:double]>
87.73

> <Minimum projection radius [A] [MProp:scalar:double]>
4.97

> <Maximum projection radius [A] [MProp:scalar:double]>
7.5

> <Van der Waals surface area [A^2] [MProp:scalar:double]>
438.43

> <Solvent accessible surface area [A^2] [MProp:scalar:double]>
511.18

> <Strongest acidic pKa>
N/A

> <Strongest basic pKa [MProp:scalar:double]>
-0.45

> <Isoelectric point>
N/A

> <Intrinsic solubility [logS] [MProp:scalar:double]>
-5.97

> <Solubility category>
Low

> <logP [MProp:scalar:double]>
4.6

> <logD_PH0 [MProp:scalar:double]>
4.46

> <logD_PH1 [MProp:scalar:double]>
4.58

> <logD_PH2 [MProp:scalar:double]>
4.59

> <logD_PH3 [MProp:scalar:double]>
4.6

> <logD_PH4 [MProp:scalar:double]>
4.6

> <logD_PH5 [MProp:scalar:double]>
4.6

> <logD_PH6 [MProp:scalar:double]>
4.6

> <logD_PH7 [MProp:scalar:double]>
4.6

> <logD_PH8 [MProp:scalar:double]>
4.6

> <logD_PH9 [MProp:scalar:double]>
4.6

> <logD_PH10 [MProp:scalar:double]>
4.6

> <logD_PH11 [MProp:scalar:double]>
4.6

> <logD_PH12 [MProp:scalar:double]>
4.6

> <logD_PH13 [MProp:scalar:double]>
4.6

> <logD_PH14 [MProp:scalar:double]>
4.6

> <HLB [MProp:scalar:double]>
5.7

> <IUPAC name>
5-amino-1-[2,6-dichloro-4-(trifluoromethyl)phenyl]-4-trifluoromethanesulfonyl-1H-pyrazole-3-carbonitrile

> <SMILES>
NC1=C(C(=NN1C1=C(Cl)C=C(C=C1Cl)C(F)(F)F)C#N)S(=O)(=O)C(F)(F)F

> <InChI>
InChI=1S/C12H4Cl2F6N4O2S/c13-5-1-4(11(15,16)17)2-6(14)8(5)24-10(22)9(7(3-21)23-24)27(25,26)12(18,19)20/h1-2H,22H2

> <InChIKey>
LGHZJDKSVUTELU-UHFFFAOYSA-N

> <Traditional name>
fipronil sulfone

> <Common names>
fipronil sulfone

> <CAS Registry Numbers(R)>
120068-36-2

$$$$
Flufenacet
  Mrv2222 01232613222D          

 24 25  0  0  0  0            999 V2000
    0.6039   -1.6500    0.0000 C   0  0  0  0  0  0  0  0  0  0  0  0
    1.4289   -1.6500    0.0000 C   0  0  0  0  0  0  0  0  0  0  0  0
    1.8414   -0.9355    0.0000 C   0  0  0  0  0  0  0  0  0  0  0  0
    1.8414   -2.3645    0.0000 N   0  0  0  0  0  0  0  0  0  0  0  0
    1.4289   -3.0789    0.0000 C   0  0  0  0  0  0  0  0  0  0  0  0
    1.8414   -3.7934    0.0000 C   0  0  0  0  0  0  0  0  0  0  0  0
    1.4289   -4.5079    0.0000 C   0  0  0  0  0  0  0  0  0  0  0  0
    0.6039   -4.5079    0.0000 C   0  0  0  0  0  0  0  0  0  0  0  0
    0.1914   -3.7934    0.0000 C   0  0  0  0  0  0  0  0  0  0  0  0
    0.6039   -3.0789    0.0000 C   0  0  0  0  0  0  0  0  0  0  0  0
    0.1914   -5.2224    0.0000 F   0  0  0  0  0  0  0  0  0  0  0  0
    2.6664   -2.3645    0.0000 C   0  0  0  0  0  0  0  0  0  0  0  0
    3.0789   -3.0789    0.0000 O   0  0  0  0  0  0  0  0  0  0  0  0
    3.0789   -1.6500    0.0000 C   0  0  0  0  0  0  0  0  0  0  0  0
    3.9039   -1.6500    0.0000 O   0  0  0  0  0  0  0  0  0  0  0  0
    4.3164   -0.9355    0.0000 C   0  0  0  0  0  0  0  0  0  0  0  0
    3.9809   -0.1819    0.0000 N   0  0  0  0  0  0  0  0  0  0  0  0
    4.5940    0.3702    0.0000 N   0  0  0  0  0  0  0  0  0  0  0  0
    5.3084   -0.0423    0.0000 C   0  0  0  0  0  0  0  0  0  0  0  0
    5.1369   -0.8493    0.0000 S   0  0  0  0  0  0  0  0  0  0  0  0
    6.0621    0.2932    0.0000 C   0  0  0  0  0  0  0  0  0  0  0  0
    6.8158    0.6288    0.0000 F   0  0  0  0  0  0  0  0  0  0  0  0
    6.3977   -0.4604    0.0000 F   0  0  0  0  0  0  0  0  0  0  0  0
    5.7266    1.0469    0.0000 F   0  0  0  0  0  0  0  0  0  0  0  0
  1  2  1  0  0  0  0
  2  3  1  0  0  0  0
  2  4  1  0  0  0  0
  4  5  1  0  0  0  0
  5  6  2  0  0  0  0
  6  7  1  0  0  0  0
  7  8  2  0  0  0  0
  8  9  1  0  0  0  0
  9 10  2  0  0  0  0
  5 10  1  0  0  0  0
  8 11  1  0  0  0  0
  4 12  1  0  0  0  0
 12 13  2  0  0  0  0
 12 14  1  0  0  0  0
 14 15  1  0  0  0  0
 15 16  1  0  0  0  0
 16 17  2  0  0  0  0
 17 18  1  0  0  0  0
 18 19  2  0  0  0  0
 19 20  1  0  0  0  0
 16 20  1  0  0  0  0
 19 21  1  0  0  0  0
 21 22  1  0  0  0  0
 21 23  1  0  0  0  0
 21 24  1  0  0  0  0
M  END
> <Molar mass [g/mol] [MProp:scalar:double]>
363.33

> <Exact mass [Da] [MProp:scalar:double]>
363.066460497

> <Formula>
C14H13F4N3O2S

> <Composition>
C (46.28%), H (3.61%), F (20.92%), N (11.57%), O (8.81%), S (8.82%)

> <Lipinski's rule of five [MProp:scalar:boolean]>
true

> <Atom count [MProp:scalar:integer]>
37

> <Heavy atom count [MProp:scalar:integer]>
24

> <Asymmetric atom count [MProp:scalar:integer]>
0

> <Rotatable bond count [MProp:scalar:integer]>
6

> <Ring count [MProp:scalar:integer]>
2

> <Aromatic ring count [MProp:scalar:integer]>
2

> <Hetero ring count [MProp:scalar:integer]>
1

> <FSP3 [MProp:scalar:double]>
0.36

> <Hydrogen bond donor count [MProp:scalar:integer]>
0

> <Hydrogen bond acceptor count [MProp:scalar:integer]>
4

> <Formal charge [MProp:scalar:integer]>
0

> <Topological polar surface area [A^2] [MProp:scalar:double]>
55.32

> <Polarizability [A^3] [MProp:scalar:double]>
29.13

> <Molar refractivity [cm^3/mol] [MProp:scalar:double]>
79.64

> <Van der Waals volume [A^3] [MProp:scalar:double]>
280.65

> <Minimum projection area [A^2] [MProp:scalar:double]>
51.67

> <Maximum projection area [A^2] [MProp:scalar:double]>
81.79

> <Minimum projection radius [A] [MProp:scalar:double]>
5.25

> <Maximum projection radius [A] [MProp:scalar:double]>
7.57

> <Van der Waals surface area [A^2] [MProp:scalar:double]>
451.71

> <Solvent accessible surface area [A^2] [MProp:scalar:double]>
567.29

> <Strongest acidic pKa [MProp:scalar:double]>
12.58

> <Strongest basic pKa>
N/A

> <Isoelectric point>
N/A

> <Intrinsic solubility [logS] [MProp:scalar:double]>
-5.2

> <Solubility category>
Low

> <logP [MProp:scalar:double]>
3.22

> <logD_PH0 [MProp:scalar:double]>
3.22

> <logD_PH1 [MProp:scalar:double]>
3.22

> <logD_PH2 [MProp:scalar:double]>
3.22

> <logD_PH3 [MProp:scalar:double]>
3.22

> <logD_PH4 [MProp:scalar:double]>
3.22

> <logD_PH5 [MProp:scalar:double]>
3.22

> <logD_PH6 [MProp:scalar:double]>
3.22

> <logD_PH7 [MProp:scalar:double]>
3.22

> <logD_PH8 [MProp:scalar:double]>
3.22

> <logD_PH9 [MProp:scalar:double]>
3.22

> <logD_PH10 [MProp:scalar:double]>
3.22

> <logD_PH11 [MProp:scalar:double]>
3.21

> <logD_PH12 [MProp:scalar:double]>
3.12

> <logD_PH13 [MProp:scalar:double]>
2.66

> <logD_PH14 [MProp:scalar:double]>
1.8

> <HLB [MProp:scalar:double]>
12.13

> <IUPAC name>
N-(4-fluorophenyl)-N-(propan-2-yl)-2-{[5-(trifluoromethyl)-1,3,4-thiadiazol-2-yl]oxy}acetamide

> <SMILES>
CC(C)N(C(=O)COC1=NN=C(S1)C(F)(F)F)C1=CC=C(F)C=C1

> <InChI>
InChI=1S/C14H13F4N3O2S/c1-8(2)21(10-5-3-9(15)4-6-10)11(22)7-23-13-20-19-12(24-13)14(16,17)18/h3-6,8H,7H2,1-2H3

> <InChIKey>
IANUJLZYFUDJIH-UHFFFAOYSA-N

> <Traditional name>
flufenacet

> <Common names>
flufenacet; fluthiamide

> <CAS Registry Numbers(R)>
142459-58-3

$$$$
Fluoranthene
  Mrv2222 01232613222D          

 16 19  0  0  0  0            999 V2000
    3.1625    1.0189    0.0000 C   0  0  0  0  0  0  0  0  0  0  0  0
    3.4174    1.8035    0.0000 C   0  0  0  0  0  0  0  0  0  0  0  0
    2.8654    2.4166    0.0000 C   0  0  0  0  0  0  0  0  0  0  0  0
    2.0584    2.2451    0.0000 C   0  0  0  0  0  0  0  0  0  0  0  0
    1.8035    1.4604    0.0000 C   0  0  0  0  0  0  0  0  0  0  0  0
    2.3555    0.8474    0.0000 C   0  0  0  0  0  0  0  0  0  0  0  0
    0.9785    1.4604    0.0000 C   0  0  0  0  0  0  0  0  0  0  0  0
    0.4265    0.8474    0.0000 C   0  0  0  0  0  0  0  0  0  0  0  0
   -0.3805    1.0189    0.0000 C   0  0  0  0  0  0  0  0  0  0  0  0
   -0.6354    1.8035    0.0000 C   0  0  0  0  0  0  0  0  0  0  0  0
   -0.0834    2.4166    0.0000 C   0  0  0  0  0  0  0  0  0  0  0  0
    0.7236    2.2451    0.0000 C   0  0  0  0  0  0  0  0  0  0  0  0
    1.3910    2.7300    0.0000 C   0  0  0  0  0  0  0  0  0  0  0  0
    1.3048    3.5505    0.0000 C   0  0  0  0  0  0  0  0  0  0  0  0
    0.5511    3.8860    0.0000 C   0  0  0  0  0  0  0  0  0  0  0  0
   -0.1164    3.4011    0.0000 C   0  0  0  0  0  0  0  0  0  0  0  0
  1  2  2  0  0  0  0
  2  3  1  0  0  0  0
  3  4  2  0  0  0  0
  4  5  1  0  0  0  0
  5  6  2  0  0  0  0
  1  6  1  0  0  0  0
  5  7  1  0  0  0  0
  7  8  2  0  0  0  0
  8  9  1  0  0  0  0
  9 10  2  0  0  0  0
 10 11  1  0  0  0  0
 11 12  1  0  0  0  0
  7 12  1  0  0  0  0
 12 13  2  0  0  0  0
  4 13  1  0  0  0  0
 13 14  1  0  0  0  0
 14 15  2  0  0  0  0
 15 16  1  0  0  0  0
 11 16  2  0  0  0  0
M  END
> <Molar mass [g/mol] [MProp:scalar:double]>
202.256

> <Exact mass [Da] [MProp:scalar:double]>
202.078250322

> <Formula>
C16H10

> <Composition>
C (95.02%), H (4.98%)

> <Lipinski's rule of five [MProp:scalar:boolean]>
true

> <Atom count [MProp:scalar:integer]>
26

> <Heavy atom count [MProp:scalar:integer]>
16

> <Asymmetric atom count [MProp:scalar:integer]>
0

> <Rotatable bond count [MProp:scalar:integer]>
0

> <Ring count [MProp:scalar:integer]>
4

> <Aromatic ring count [MProp:scalar:integer]>
3

> <Hetero ring count [MProp:scalar:integer]>
0

> <FSP3 [MProp:scalar:double]>
0.0

> <Hydrogen bond donor count [MProp:scalar:integer]>
0

> <Hydrogen bond acceptor count [MProp:scalar:integer]>
0

> <Formal charge [MProp:scalar:integer]>
0

> <Topological polar surface area [A^2] [MProp:scalar:double]>
0.0

> <Polarizability [A^3] [MProp:scalar:double]>
30.03

> <Molar refractivity [cm^3/mol] [MProp:scalar:double]>
66.72

> <Van der Waals volume [A^3] [MProp:scalar:double]>
183.53

> <Minimum projection area [A^2] [MProp:scalar:double]>
31.6

> <Maximum projection area [A^2] [MProp:scalar:double]>
72.69

> <Minimum projection radius [A] [MProp:scalar:double]>
4.66

> <Maximum projection radius [A] [MProp:scalar:double]>
5.63

> <Van der Waals surface area [A^2] [MProp:scalar:double]>
282.32

> <Solvent accessible surface area [A^2] [MProp:scalar:double]>
363.46

> <Strongest acidic pKa>
N/A

> <Strongest basic pKa>
N/A

> <Isoelectric point>
N/A

> <Intrinsic solubility [logS] [MProp:scalar:double]>
-6.54

> <Solubility category>
Low

> <logP [MProp:scalar:double]>
4.28

> <logD_PH0 [MProp:scalar:double]>
4.28

> <logD_PH1 [MProp:scalar:double]>
4.28

> <logD_PH2 [MProp:scalar:double]>
4.28

> <logD_PH3 [MProp:scalar:double]>
4.28

> <logD_PH4 [MProp:scalar:double]>
4.28

> <logD_PH5 [MProp:scalar:double]>
4.28

> <logD_PH6 [MProp:scalar:double]>
4.28

> <logD_PH7 [MProp:scalar:double]>
4.28

> <logD_PH8 [MProp:scalar:double]>
4.28

> <logD_PH9 [MProp:scalar:double]>
4.28

> <logD_PH10 [MProp:scalar:double]>
4.28

> <logD_PH11 [MProp:scalar:double]>
4.28

> <logD_PH12 [MProp:scalar:double]>
4.28

> <logD_PH13 [MProp:scalar:double]>
4.28

> <logD_PH14 [MProp:scalar:double]>
4.28

> <HLB [MProp:scalar:double]>
1.51

> <IUPAC name>
fluoranthene

> <SMILES>
C1=CC=C2C(=C1)C1=CC=CC3=CC=CC2=C13

> <InChI>
InChI=1S/C16H10/c1-2-8-13-12(7-1)14-9-3-5-11-6-4-10-15(13)16(11)14/h1-10H

> <InChIKey>
GVEPBJHOBDJJJI-UHFFFAOYSA-N

> <Traditional name>
fluoranthene

> <Common names>
1,2-(1,8-naphthylene)-benzene; 1,2-(1,8-naphthylene)benzene; 1,2-benzacenaphthene; benzo(jk)fluorene; idryl; rcra waste number U120

> <CAS Registry Numbers(R)>
206-44-0, 76774-50-0

$$$$
Fluoxetine
  Mrv2222 01232613222D          

 22 23  0  0  0  0            999 V2000
    1.4289   -4.1250    0.0000 C   0  0  0  0  0  0  0  0  0  0  0  0
    2.1434   -3.7125    0.0000 N   0  0  0  0  0  0  0  0  0  0  0  0
    2.8579   -4.1250    0.0000 C   0  0  0  0  0  0  0  0  0  0  0  0
    3.5724   -3.7125    0.0000 C   0  0  0  0  0  0  0  0  0  0  0  0
    4.2868   -4.1250    0.0000 C   0  0  0  0  0  0  0  0  0  0  0  0
    4.2868   -4.9500    0.0000 C   0  0  0  0  0  0  0  0  0  0  0  0
    5.0013   -5.3625    0.0000 C   0  0  0  0  0  0  0  0  0  0  0  0
    5.0013   -6.1875    0.0000 C   0  0  0  0  0  0  0  0  0  0  0  0
    4.2868   -6.6000    0.0000 C   0  0  0  0  0  0  0  0  0  0  0  0
    3.5724   -6.1875    0.0000 C   0  0  0  0  0  0  0  0  0  0  0  0
    3.5724   -5.3625    0.0000 C   0  0  0  0  0  0  0  0  0  0  0  0
    5.0013   -3.7125    0.0000 O   0  0  0  0  0  0  0  0  0  0  0  0
    5.7158   -4.1250    0.0000 C   0  0  0  0  0  0  0  0  0  0  0  0
    6.4302   -3.7125    0.0000 C   0  0  0  0  0  0  0  0  0  0  0  0
    7.1447   -4.1250    0.0000 C   0  0  0  0  0  0  0  0  0  0  0  0
    7.1447   -4.9500    0.0000 C   0  0  0  0  0  0  0  0  0  0  0  0
    6.4302   -5.3625    0.0000 C   0  0  0  0  0  0  0  0  0  0  0  0
    5.7158   -4.9500    0.0000 C   0  0  0  0  0  0  0  0  0  0  0  0
    7.8592   -5.3625    0.0000 C   0  0  0  0  0  0  0  0  0  0  0  0
    8.5737   -5.7750    0.0000 F   0  0  0  0  0  0  0  0  0  0  0  0
    7.4467   -6.0770    0.0000 F   0  0  0  0  0  0  0  0  0  0  0  0
    8.2717   -4.6480    0.0000 F   0  0  0  0  0  0  0  0  0  0  0  0
  1  2  1  0  0  0  0
  2  3  1  0  0  0  0
  3  4  1  0  0  0  0
  4  5  1  0  0  0  0
  5  6  1  0  0  0  0
  6  7  2  0  0  0  0
  7  8  1  0  0  0  0
  8  9  2  0  0  0  0
  9 10  1  0  0  0  0
 10 11  2  0  0  0  0
  6 11  1  0  0  0  0
  5 12  1  0  0  0  0
 12 13  1  0  0  0  0
 13 14  2  0  0  0  0
 14 15  1  0  0  0  0
 15 16  2  0  0  0  0
 16 17  1  0  0  0  0
 17 18  2  0  0  0  0
 13 18  1  0  0  0  0
 16 19  1  0  0  0  0
 19 20  1  0  0  0  0
 19 21  1  0  0  0  0
 19 22  1  0  0  0  0
M  END
> <Molar mass [g/mol] [MProp:scalar:double]>
309.332

> <Exact mass [Da] [MProp:scalar:double]>
309.134048693

> <Formula>
C17H18F3NO

> <Composition>
C (66.01%), H (5.87%), F (18.43%), N (4.53%), O (5.17%)

> <Lipinski's rule of five [MProp:scalar:boolean]>
true

> <Atom count [MProp:scalar:integer]>
40

> <Heavy atom count [MProp:scalar:integer]>
22

> <Asymmetric atom count [MProp:scalar:integer]>
1

> <Rotatable bond count [MProp:scalar:integer]>
7

> <Ring count [MProp:scalar:integer]>
2

> <Aromatic ring count [MProp:scalar:integer]>
2

> <Hetero ring count [MProp:scalar:integer]>
0

> <FSP3 [MProp:scalar:double]>
0.29

> <Hydrogen bond donor count [MProp:scalar:integer]>
1

> <Hydrogen bond acceptor count [MProp:scalar:integer]>
2

> <Formal charge [MProp:scalar:integer]>
0

> <Topological polar surface area [A^2] [MProp:scalar:double]>
21.26

> <Polarizability [A^3] [MProp:scalar:double]>
30.44

> <Molar refractivity [cm^3/mol] [MProp:scalar:double]>
80.37

> <Van der Waals volume [A^3] [MProp:scalar:double]>
274.37

> <Minimum projection area [A^2] [MProp:scalar:double]>
42.96

> <Maximum projection area [A^2] [MProp:scalar:double]>
81.31

> <Minimum projection radius [A] [MProp:scalar:double]>
4.67

> <Maximum projection radius [A] [MProp:scalar:double]>
7.49

> <Van der Waals surface area [A^2] [MProp:scalar:double]>
450.56

> <Solvent accessible surface area [A^2] [MProp:scalar:double]>
556.68

> <Strongest acidic pKa>
N/A

> <Strongest basic pKa [MProp:scalar:double]>
9.4

> <Isoelectric point>
N/A

> <Intrinsic solubility [logS] [MProp:scalar:double]>
-4.07

> <Solubility category>
Moderate

> <logP [MProp:scalar:double]>
4.17

> <logD_PH0 [MProp:scalar:double]>
0.93

> <logD_PH1 [MProp:scalar:double]>
0.93

> <logD_PH2 [MProp:scalar:double]>
0.93

> <logD_PH3 [MProp:scalar:double]>
0.93

> <logD_PH4 [MProp:scalar:double]>
0.93

> <logD_PH5 [MProp:scalar:double]>
0.96

> <logD_PH6 [MProp:scalar:double]>
1.16

> <logD_PH7 [MProp:scalar:double]>
1.83

> <logD_PH8 [MProp:scalar:double]>
2.76

> <logD_PH9 [MProp:scalar:double]>
3.63

> <logD_PH10 [MProp:scalar:double]>
4.08

> <logD_PH11 [MProp:scalar:double]>
4.16

> <logD_PH12 [MProp:scalar:double]>
4.17

> <logD_PH13 [MProp:scalar:double]>
4.17

> <logD_PH14 [MProp:scalar:double]>
4.17

> <HLB [MProp:scalar:double]>
9.45

> <IUPAC name>
methyl({3-phenyl-3-[4-(trifluoromethyl)phenoxy]propyl})amine

> <SMILES>
CNCCC(OC1=CC=C(C=C1)C(F)(F)F)C1=CC=CC=C1

> <InChI>
InChI=1/C17H18F3NO/c1-21-12-11-16(13-5-3-2-4-6-13)22-15-9-7-14(8-10-15)17(18,19)20/h2-10,16,21H,11-12H2,1H3

> <InChIKey>
RTHCYVBBDHJXIQ-UHFFFAOYNA-N

> <Traditional name>
fluoxetine

> <Common names>
adofen; affectine; alzac 20; animex-on; ansilan; deprex; deproxin; erocap; eufor; fluctin; fluctine; fludac; flufran; flunil; fluox; fluox-puren; fluoxac; fluoxeren; fluoxetin; fluoxetina; fluoxetine; fluoxetine (product); fluoxetine (substance); fluoxetine preparation; fluoxetinum; fluoxil; flutin; flutine; fluval; fluxen; fluxil; fontex; foxetin; lorien; lovan; margrilan; modipran; neupax; nopres; nuzak; oxedep; pragmaten; prizma; proctin; prodep; prozac; prozac 20; prozac weekly; pulvules; reconcile; reneuron; rowexetina; sanzur; sarafem; sinzac; zactin; zepax; 氟西汀

> <CAS Registry Numbers(R)>
54910-89-3, 57226-07-0

$$$$
Flupyradifurone
  Mrv2222 01232613222D          

 19 20  0  0  0  0            999 V2000
   -1.4681   -1.7269    0.0000 C    0  0  0  0  0  0  0  0  0  0  0  0
   -0.7145   -2.0625    0.0000 C    0  0  0  0  0  0  0  0  0  0  0  0
   -0.8007   -2.8830    0.0000 C    0  0  0  0  0  0  0  0  0  0  0  0
   -1.6077   -3.0545    0.0000 C    0  0  0  0  0  0  0  0  0  0  0  0
   -1.9432   -3.8082    0.0000 O    0  0  0  0  0  0  0  0  0  0  0  0
   -2.0202   -2.3400    0.0000 O    0  0  0  0  0  0  0  0  0  0  0  0
    0.0000   -1.6500    0.0000 N    0  0  0  0  0  0  0  0  0  0  0  0
    0.0000   -0.8250    0.0000 C    0  0  0  0  0  0  0  0  0  0  0  0
   -0.7145   -0.4125    0.0000 C    0  0  0  0  0  0  0  0  0  0  0  0
   -1.4289   -0.8250    0.0000 C    0  0  0  0  0  0  0  0  0  0  0  0
   -2.1434   -0.4125    0.0000 N    0  0  0  0  0  0  0  0  0  0  0  0
   -2.1434    0.4125    0.0000 C    0  0  0  0  0  0  0  0  0  0  0  0
   -1.4289    0.8250    0.0000 C    0  0  0  0  0  0  0  0  0  0  0  0
   -0.7145    0.4125    0.0000 C    0  0  0  0  0  0  0  0  0  0  0  0
   -2.8579    0.8250    0.0000 Cl   0  0  0  0  0  0  0  0  0  0  0  0
    0.7145   -2.0625    0.0000 C    0  0  0  0  0  0  0  0  0  0  0  0
    1.4289   -1.6500    0.0000 C    0  0  0  0  0  0  0  0  0  0  0  0
    1.4289   -0.8250    0.0000 F    0  0  0  0  0  0  0  0  0  0  0  0
    2.1434   -2.0625    0.0000 F    0  0  0  0  0  0  0  0  0  0  0  0
  1  2  1  0  0  0  0
  2  3  2  0  0  0  0
  3  4  1  0  0  0  0
  4  5  2  0  0  0  0
  4  6  1  0  0  0  0
  1  6  1  0  0  0  0
  2  7  1  0  0  0  0
  7  8  1  0  0  0  0
  8  9  1  0  0  0  0
  9 10  2  0  0  0  0
 10 11  1  0  0  0  0
 11 12  2  0  0  0  0
 12 13  1  0  0  0  0
 13 14  2  0  0  0  0
  9 14  1  0  0  0  0
 12 15  1  0  0  0  0
  7 16  1  0  0  0  0
 16 17  1  0  0  0  0
 17 18  1  0  0  0  0
 17 19  1  0  0  0  0
M  END
> <Molar mass [g/mol] [MProp:scalar:double]>
288.68

> <Exact mass [Da] [MProp:scalar:double]>
288.0477116

> <Formula>
C12H11ClF2N2O2

> <Composition>
C (49.93%), H (3.84%), Cl (12.28%), F (13.16%), N (9.70%), O (11.08%)

> <Lipinski's rule of five [MProp:scalar:boolean]>
true

> <Atom count [MProp:scalar:integer]>
30

> <Heavy atom count [MProp:scalar:integer]>
19

> <Asymmetric atom count [MProp:scalar:integer]>
0

> <Rotatable bond count [MProp:scalar:integer]>
5

> <Ring count [MProp:scalar:integer]>
2

> <Aromatic ring count [MProp:scalar:integer]>
1

> <Hetero ring count [MProp:scalar:integer]>
2

> <FSP3 [MProp:scalar:double]>
0.33

> <Hydrogen bond donor count [MProp:scalar:integer]>
0

> <Hydrogen bond acceptor count [MProp:scalar:integer]>
3

> <Formal charge [MProp:scalar:integer]>
0

> <Topological polar surface area [A^2] [MProp:scalar:double]>
42.43

> <Polarizability [A^3] [MProp:scalar:double]>
24.84

> <Molar refractivity [cm^3/mol] [MProp:scalar:double]>
67.75

> <Van der Waals volume [A^3] [MProp:scalar:double]>
224.25

> <Minimum projection area [A^2] [MProp:scalar:double]>
44.14

> <Maximum projection area [A^2] [MProp:scalar:double]>
70.19

> <Minimum projection radius [A] [MProp:scalar:double]>
4.58

> <Maximum projection radius [A] [MProp:scalar:double]>
6.71

> <Van der Waals surface area [A^2] [MProp:scalar:double]>
350.25

> <Solvent accessible surface area [A^2] [MProp:scalar:double]>
387.62

> <Strongest acidic pKa>
N/A

> <Strongest basic pKa [MProp:scalar:double]>
2.45

> <Isoelectric point>
N/A

> <Intrinsic solubility [logS] [MProp:scalar:double]>
-3.68

> <Solubility category>
Moderate

> <logP [MProp:scalar:double]>
1.84

> <logD_PH0 [MProp:scalar:double]>
-0.67

> <logD_PH1 [MProp:scalar:double]>
0.37

> <logD_PH2 [MProp:scalar:double]>
1.26

> <logD_PH3 [MProp:scalar:double]>
1.73

> <logD_PH4 [MProp:scalar:double]>
1.83

> <logD_PH5 [MProp:scalar:double]>
1.84

> <logD_PH6 [MProp:scalar:double]>
1.84

> <logD_PH7 [MProp:scalar:double]>
1.84

> <logD_PH8 [MProp:scalar:double]>
1.84

> <logD_PH9 [MProp:scalar:double]>
1.84

> <logD_PH10 [MProp:scalar:double]>
1.84

> <logD_PH11 [MProp:scalar:double]>
1.84

> <logD_PH12 [MProp:scalar:double]>
1.84

> <logD_PH13 [MProp:scalar:double]>
1.84

> <logD_PH14 [MProp:scalar:double]>
1.84

> <HLB [MProp:scalar:double]>
13.61

> <IUPAC name>
4-{[(6-chloropyridin-3-yl)methyl](2,2-difluoroethyl)amino}-2,5-dihydrofuran-2-one

> <SMILES>
FC(F)CN(CC1=CN=C(Cl)C=C1)C1=CC(=O)OC1

> <InChI>
InChI=1S/C12H11ClF2N2O2/c13-10-2-1-8(4-16-10)5-17(6-11(14)15)9-3-12(18)19-7-9/h1-4,11H,5-7H2

> <InChIKey>
QOIYTRGFOFZNKF-UHFFFAOYSA-N

> <Traditional name>
flupyradifurone

> <Common names>
flupyradifurone

> <CAS Registry Numbers(R)>
951659-40-8

$$$$
Gabapentin
  Mrv2222 01232613222D          

 12 12  0  0  0  0            999 V2000
    0.7145   -0.4125    0.0000 C   0  0  0  0  0  0  0  0  0  0  0  0
    0.0000    0.0000    0.0000 C   0  0  0  0  0  0  0  0  0  0  0  0
    0.0000    0.8250    0.0000 C   0  0  0  0  0  0  0  0  0  0  0  0
    0.7145    1.2375    0.0000 C   0  0  0  0  0  0  0  0  0  0  0  0
    1.4289    0.8250    0.0000 C   0  0  0  0  0  0  0  0  0  0  0  0
    1.4289    0.0000    0.0000 C   0  0  0  0  0  0  0  0  0  0  0  0
    0.3272    1.9659    0.0000 C   0  0  0  0  0  0  0  0  0  0  0  0
    0.7643    2.6656    0.0000 C   0  0  0  0  0  0  0  0  0  0  0  0
    0.3770    3.3940    0.0000 O   0  0  0  0  0  0  0  0  0  0  0  0
    1.5888    2.6368    0.0000 O   0  0  0  0  0  0  0  0  0  0  0  0
    1.1018    1.9659    0.0000 C   0  0  0  0  0  0  0  0  0  0  0  0
    1.9263    1.9947    0.0000 N   0  0  0  0  0  0  0  0  0  0  0  0
  1  2  1  0  0  0  0
  2  3  1  0  0  0  0
  3  4  1  0  0  0  0
  4  5  1  0  0  0  0
  5  6  1  0  0  0  0
  1  6  1  0  0  0  0
  4  7  1  0  0  0  0
  7  8  1  0  0  0  0
  8  9  2  0  0  0  0
  8 10  1  0  0  0  0
  4 11  1  0  0  0  0
 11 12  1  0  0  0  0
M  END
> <Molar mass [g/mol] [MProp:scalar:double]>
171.24

> <Exact mass [Da] [MProp:scalar:double]>
171.125928791

> <Formula>
C9H17NO2

> <Composition>
C (63.13%), H (10.01%), N (8.18%), O (18.69%)

> <Lipinski's rule of five [MProp:scalar:boolean]>
true

> <Atom count [MProp:scalar:integer]>
29

> <Heavy atom count [MProp:scalar:integer]>
12

> <Asymmetric atom count [MProp:scalar:integer]>
0

> <Rotatable bond count [MProp:scalar:integer]>
3

> <Ring count [MProp:scalar:integer]>
1

> <Aromatic ring count [MProp:scalar:integer]>
0

> <Hetero ring count [MProp:scalar:integer]>
0

> <FSP3 [MProp:scalar:double]>
0.89

> <Hydrogen bond donor count [MProp:scalar:integer]>
2

> <Hydrogen bond acceptor count [MProp:scalar:integer]>
3

> <Formal charge [MProp:scalar:integer]>
0

> <Topological polar surface area [A^2] [MProp:scalar:double]>
63.32

> <Polarizability [A^3] [MProp:scalar:double]>
18.62

> <Molar refractivity [cm^3/mol] [MProp:scalar:double]>
46.33

> <Van der Waals volume [A^3] [MProp:scalar:double]>
176.09

> <Minimum projection area [A^2] [MProp:scalar:double]>
36.03

> <Maximum projection area [A^2] [MProp:scalar:double]>
52.65

> <Minimum projection radius [A] [MProp:scalar:double]>
3.9

> <Maximum projection radius [A] [MProp:scalar:double]>
5.25

> <Van der Waals surface area [A^2] [MProp:scalar:double]>
299.73

> <Solvent accessible surface area [A^2] [MProp:scalar:double]>
288.45

> <Strongest acidic pKa [MProp:scalar:double]>
4.63

> <Strongest basic pKa [MProp:scalar:double]>
9.91

> <Isoelectric point [MProp:scalar:double]>
7.18

> <Intrinsic solubility [logS] [MProp:scalar:double]>
-1.13

> <Solubility category>
High

> <logP [MProp:scalar:double]>
-1.27

> <logD_PH0 [MProp:scalar:double]>
-2.04

> <logD_PH1 [MProp:scalar:double]>
-2.04

> <logD_PH2 [MProp:scalar:double]>
-2.04

> <logD_PH3 [MProp:scalar:double]>
-2.0

> <logD_PH4 [MProp:scalar:double]>
-1.76

> <logD_PH5 [MProp:scalar:double]>
-1.4

> <logD_PH6 [MProp:scalar:double]>
-1.29

> <logD_PH7 [MProp:scalar:double]>
-1.27

> <logD_PH8 [MProp:scalar:double]>
-1.28

> <logD_PH9 [MProp:scalar:double]>
-1.32

> <logD_PH10 [MProp:scalar:double]>
-1.59

> <logD_PH11 [MProp:scalar:double]>
-2.17

> <logD_PH12 [MProp:scalar:double]>
-2.48

> <logD_PH13 [MProp:scalar:double]>
-2.53

> <logD_PH14 [MProp:scalar:double]>
-2.54

> <HLB [MProp:scalar:double]>
12.33

> <IUPAC name>
2-[1-(aminomethyl)cyclohexyl]acetic acid

> <SMILES>
NCC1(CC(O)=O)CCCCC1

> <InChI>
InChI=1S/C9H17NO2/c10-7-9(6-8(11)12)4-2-1-3-5-9/h1-7,10H2,(H,11,12)

> <InChIKey>
UGJMXCAKCUNAIE-UHFFFAOYSA-N

> <Traditional name>
gabapentin

> <Common names>
aclonium; apo-gabapentin; apotex brand of gabapentin; aventis brand of gabapentin; gabapentin; gabapentin (product); gabapentin (substance); gabapentin GR; gabapentin hexal; gabapentin preparation; gabapentin stada; gabapentin-ratiopharm; gabapentine; gabapentine [inn-french]; gabapentino; gabapentino [inn-spanish]; gabapentinum; gabapetin; hexal brand of gabapentin; neurontin; novo-gabapentin; novo-gabapentine; novopharm brand of gabapentin; parke davis brand of gabapentin; pfizer brand of gabapentin; pharmascience brand of gabapentin; pms-gabapentin; ratiopharm brand of gabapentin; stadapharm brand of gabapentin; 加巴喷丁

> <CAS Registry Numbers(R)>
60142-96-3, 1126623-20-8

$$$$
Gliclazide
  Mrv2222 01232613222D          

 22 24  0  0  0  0            999 V2000
   -3.3404   -4.5418    0.0000 C   0  0  0  0  0  0  0  0  0  0  0  0
   -2.9279   -3.8273    0.0000 C   0  0  0  0  0  0  0  0  0  0  0  0
   -3.3404   -3.1128    0.0000 C   0  0  0  0  0  0  0  0  0  0  0  0
   -2.9279   -2.3984    0.0000 C   0  0  0  0  0  0  0  0  0  0  0  0
   -2.1029   -2.3984    0.0000 C   0  0  0  0  0  0  0  0  0  0  0  0
   -1.6904   -3.1128    0.0000 C   0  0  0  0  0  0  0  0  0  0  0  0
   -2.1029   -3.8273    0.0000 C   0  0  0  0  0  0  0  0  0  0  0  0
   -1.6904   -1.6839    0.0000 S   0  0  0  0  0  0  0  0  0  0  0  0
   -0.9759   -2.0964    0.0000 O   0  0  0  0  0  0  0  0  0  0  0  0
   -2.4048   -1.2714    0.0000 O   0  0  0  0  0  0  0  0  0  0  0  0
   -1.2779   -0.9694    0.0000 N   0  0  0  0  0  0  0  0  0  0  0  0
   -0.4529   -0.9694    0.0000 C   0  0  0  0  0  0  0  0  0  0  0  0
   -0.0404   -1.6839    0.0000 O   0  0  0  0  0  0  0  0  0  0  0  0
   -0.0404   -0.2549    0.0000 N   0  0  0  0  0  0  0  0  0  0  0  0
    0.7846   -0.2549    0.0000 N   0  0  0  0  0  0  0  0  0  0  0  0
    1.2695    0.4125    0.0000 C   0  0  0  0  0  0  0  0  0  0  0  0
    2.0542    0.1576    0.0000 C   0  0  0  0  0  0  0  0  0  0  0  0
    2.8388    0.4125    0.0000 C   0  0  0  0  0  0  0  0  0  0  0  0
    3.3237   -0.2549    0.0000 C   0  0  0  0  0  0  0  0  0  0  0  0
    2.8388   -0.9224    0.0000 C   0  0  0  0  0  0  0  0  0  0  0  0
    2.0542   -0.6674    0.0000 C   0  0  0  0  0  0  0  0  0  0  0  0
    1.2695   -0.9224    0.0000 C   0  0  0  0  0  0  0  0  0  0  0  0
  1  2  1  0  0  0  0
  2  3  2  0  0  0  0
  3  4  1  0  0  0  0
  4  5  2  0  0  0  0
  5  6  1  0  0  0  0
  6  7  2  0  0  0  0
  2  7  1  0  0  0  0
  5  8  1  0  0  0  0
  8  9  2  0  0  0  0
  8 10  2  0  0  0  0
  8 11  1  0  0  0  0
 11 12  1  0  0  0  0
 12 13  2  0  0  0  0
 12 14  1  0  0  0  0
 14 15  1  0  0  0  0
 15 16  1  0  0  0  0
 16 17  1  0  0  0  0
 17 18  1  0  0  0  0
 18 19  1  0  0  0  0
 19 20  1  0  0  0  0
 20 21  1  0  0  0  0
 17 21  1  0  0  0  0
 21 22  1  0  0  0  0
 15 22  1  0  0  0  0
M  END
> <Molar mass [g/mol] [MProp:scalar:double]>
323.41

> <Exact mass [Da] [MProp:scalar:double]>
323.130362722

> <Formula>
C15H21N3O3S

> <Composition>
C (55.71%), H (6.55%), N (12.99%), O (14.84%), S (9.91%)

> <Lipinski's rule of five [MProp:scalar:boolean]>
true

> <Atom count [MProp:scalar:integer]>
43

> <Heavy atom count [MProp:scalar:integer]>
22

> <Asymmetric atom count [MProp:scalar:integer]>
2

> <Rotatable bond count [MProp:scalar:integer]>
2

> <Ring count [MProp:scalar:integer]>
3

> <Aromatic ring count [MProp:scalar:integer]>
1

> <Hetero ring count [MProp:scalar:integer]>
1

> <FSP3 [MProp:scalar:double]>
0.53

> <Hydrogen bond donor count [MProp:scalar:integer]>
2

> <Hydrogen bond acceptor count [MProp:scalar:integer]>
4

> <Formal charge [MProp:scalar:integer]>
0

> <Topological polar surface area [A^2] [MProp:scalar:double]>
78.51

> <Polarizability [A^3] [MProp:scalar:double]>
33.3

> <Molar refractivity [cm^3/mol] [MProp:scalar:double]>
83.88

> <Van der Waals volume [A^3] [MProp:scalar:double]>
285.83

> <Minimum projection area [A^2] [MProp:scalar:double]>
46.39

> <Maximum projection area [A^2] [MProp:scalar:double]>
85.56

> <Minimum projection radius [A] [MProp:scalar:double]>
4.72

> <Maximum projection radius [A] [MProp:scalar:double]>
7.99

> <Van der Waals surface area [A^2] [MProp:scalar:double]>
477.15

> <Solvent accessible surface area [A^2] [MProp:scalar:double]>
507.21

> <Strongest acidic pKa [MProp:scalar:double]>
5.37

> <Strongest basic pKa [MProp:scalar:double]>
0.52

> <Isoelectric point [MProp:scalar:double]>
2.93

> <Intrinsic solubility [logS] [MProp:scalar:double]>
-4.21

> <Solubility category>
Moderate

> <logP [MProp:scalar:double]>
1.73

> <logD_PH0 [MProp:scalar:double]>
1.1

> <logD_PH1 [MProp:scalar:double]>
1.61

> <logD_PH2 [MProp:scalar:double]>
1.72

> <logD_PH3 [MProp:scalar:double]>
1.73

> <logD_PH4 [MProp:scalar:double]>
1.72

> <logD_PH5 [MProp:scalar:double]>
1.6

> <logD_PH6 [MProp:scalar:double]>
1.18

> <logD_PH7 [MProp:scalar:double]>
0.86

> <logD_PH8 [MProp:scalar:double]>
0.8

> <logD_PH9 [MProp:scalar:double]>
0.79

> <logD_PH10 [MProp:scalar:double]>
0.79

> <logD_PH11 [MProp:scalar:double]>
0.79

> <logD_PH12 [MProp:scalar:double]>
0.79

> <logD_PH13 [MProp:scalar:double]>
0.76

> <logD_PH14 [MProp:scalar:double]>
0.58

> <HLB [MProp:scalar:double]>
16.55

> <IUPAC name>
1-(4-methylbenzenesulfonyl)-3-{octahydrocyclopenta[c]pyrrol-2-yl}urea

> <SMILES>
CC1=CC=C(C=C1)S(=O)(=O)NC(=O)NN1CC2CCCC2C1

> <InChI>
InChI=1/C15H21N3O3S/c1-11-5-7-14(8-6-11)22(20,21)17-15(19)16-18-9-12-3-2-4-13(12)10-18/h5-8,12-13H,2-4,9-10H2,1H3,(H2,16,17,19)

> <InChIKey>
BOVGTQGAOIONJV-UHFFFAOYNA-N

> <Traditional name>
gliclazide

> <Common names>
alphapharm brand of gliclazide; diabrezide; diaglyk; diaikron; diamicron; diamicron MR; gen gliclazide; gen-gliclazide; generics brand of gliclazide; genpharm brand of gliclazide; gliclazida; gliclazide; gliclazide (product); gliclazide (substance); gliclazide servier brand; gliklazid; glimicron; glyade; glyclazide; glyclizide; helsinn brand of gliclazide; mylan-gliclazide; nordialex; novo gliclazide; novo-gliclazide; novopharm brand of gliclazide; pms-gliclazide; servier brand of gliclazide; 格列齐特

> <CAS Registry Numbers(R)>
21187-98-4

$$$$
Guanylurea
  Mrv2222 01232613222D          

  7  6  0  0  0  0            999 V2000
    0.8250    0.0000    0.0000 C   0  0  0  0  0  0  0  0  0  0  0  0
    1.2375    0.7145    0.0000 N   0  0  0  0  0  0  0  0  0  0  0  0
    0.8250    1.4289    0.0000 C   0  0  0  0  0  0  0  0  0  0  0  0
    1.2375    2.1434    0.0000 O   0  0  0  0  0  0  0  0  0  0  0  0
    0.0000    1.4289    0.0000 N   0  0  0  0  0  0  0  0  0  0  0  0
    1.2375   -0.7145    0.0000 N   0  0  0  0  0  0  0  0  0  0  0  0
    0.0000    0.0000    0.0000 N   0  0  0  0  0  0  0  0  0  0  0  0
  1  2  1  0  0  0  0
  2  3  1  0  0  0  0
  3  4  2  0  0  0  0
  3  5  1  0  0  0  0
  1  6  2  0  0  0  0
  1  7  1  0  0  0  0
M  END
> <Molar mass [g/mol] [MProp:scalar:double]>
102.097

> <Exact mass [Da] [MProp:scalar:double]>
102.054160829

> <Formula>
C2H6N4O

> <Composition>
C (23.53%), H (5.92%), N (54.88%), O (15.67%)

> <Lipinski's rule of five [MProp:scalar:boolean]>
true

> <Atom count [MProp:scalar:integer]>
13

> <Heavy atom count [MProp:scalar:integer]>
7

> <Asymmetric atom count [MProp:scalar:integer]>
0

> <Rotatable bond count [MProp:scalar:integer]>
0

> <Ring count [MProp:scalar:integer]>
0

> <Aromatic ring count [MProp:scalar:integer]>
0

> <Hetero ring count [MProp:scalar:integer]>
0

> <FSP3 [MProp:scalar:double]>
0.0

> <Hydrogen bond donor count [MProp:scalar:integer]>
4

> <Hydrogen bond acceptor count [MProp:scalar:integer]>
3

> <Formal charge [MProp:scalar:integer]>
0

> <Topological polar surface area [A^2] [MProp:scalar:double]>
104.99

> <Polarizability [A^3] [MProp:scalar:double]>
8.77

> <Molar refractivity [cm^3/mol] [MProp:scalar:double]>
33.98

> <Van der Waals volume [A^3] [MProp:scalar:double]>
85.79

> <Minimum projection area [A^2] [MProp:scalar:double]>
18.1

> <Maximum projection area [A^2] [MProp:scalar:double]>
36.49

> <Minimum projection radius [A] [MProp:scalar:double]>
3.02

> <Maximum projection radius [A] [MProp:scalar:double]>
4.36

> <Van der Waals surface area [A^2] [MProp:scalar:double]>
134.76

> <Solvent accessible surface area [A^2] [MProp:scalar:double]>
234.25

> <Strongest acidic pKa [MProp:scalar:double]>
11.48

> <Strongest basic pKa [MProp:scalar:double]>
9.97

> <Isoelectric point [MProp:scalar:double]>
11.81

> <Intrinsic solubility [logS] [MProp:scalar:double]>
0.02

> <Solubility category>
High

> <logP [MProp:scalar:double]>
-1.78

> <logD_PH0 [MProp:scalar:double]>
-4.05

> <logD_PH1 [MProp:scalar:double]>
-4.05

> <logD_PH2 [MProp:scalar:double]>
-4.05

> <logD_PH3 [MProp:scalar:double]>
-4.05

> <logD_PH4 [MProp:scalar:double]>
-4.05

> <logD_PH5 [MProp:scalar:double]>
-4.05

> <logD_PH6 [MProp:scalar:double]>
-4.04

> <logD_PH7 [MProp:scalar:double]>
-3.95

> <logD_PH8 [MProp:scalar:double]>
-3.48

> <logD_PH9 [MProp:scalar:double]>
-2.64

> <logD_PH10 [MProp:scalar:double]>
-1.93

> <logD_PH11 [MProp:scalar:double]>
-1.78

> <logD_PH12 [MProp:scalar:double]>
-2.14

> <logD_PH13 [MProp:scalar:double]>
-2.49

> <logD_PH14 [MProp:scalar:double]>
-2.57

> <HLB [MProp:scalar:double]>
23.48

> <IUPAC name>
carbamimidoylurea

> <SMILES>
NC(=N)NC(N)=O

> <InChI>
InChI=1S/C2H6N4O/c3-1(4)6-2(5)7/h(H6,3,4,5,6,7)

> <InChIKey>
SQSPRWMERUQXNE-UHFFFAOYSA-N

> <Traditional name>
urea, (aminoiminomethyl)-

> <Common names>
N/A

> <CAS Registry Numbers(R)>
141-83-3

$$$$
Hydrocodone
  Mrv2222 01232613222D          

 22 26  0  0  1  0            999 V2000
   -1.2926    1.0341    0.0000 C   0  0  0  0  0  0  0  0  0  0  0  0
   -0.7132    0.4469    0.0000 N   0  0  0  0  0  0  0  0  0  0  0  0
   -0.9533   -0.3842    0.0000 C   0  0  0  0  0  0  0  0  0  0  0  0
   -0.1481   -0.9069    0.0000 C   0  0  0  0  0  0  0  0  0  0  0  0
    0.7114   -0.6779    0.0000 C   0  0  2  0  0  0  0  0  0  0  0  0
    0.3741   -0.0735    0.0000 C   0  0  2  0  0  0  0  0  0  0  0  0
    0.1278    0.6776    0.0000 C   0  0  1  0  0  0  0  0  0  0  0  0
    0.9237    0.9936    0.0000 C   0  0  0  0  0  0  0  0  0  0  0  0
    1.6258    0.4801    0.0000 C   0  0  0  0  0  0  0  0  0  0  0  0
    1.4685   -0.3571    0.0000 C   0  0  0  0  0  0  0  0  0  0  0  0
    1.9963   -0.9898    0.0000 C   0  0  0  0  0  0  0  0  0  0  0  0
    2.7953   -0.7526    0.0000 C   0  0  0  0  0  0  0  0  0  0  0  0
    3.0223    0.0515    0.0000 C   0  0  0  0  0  0  0  0  0  0  0  0
    2.4410    0.6498    0.0000 C   0  0  0  0  0  0  0  0  0  0  0  0
    3.3826   -1.3320    0.0000 O   0  0  0  0  0  0  0  0  0  0  0  0
    4.1780   -1.1131    0.0000 C   0  0  0  0  0  0  0  0  0  0  0  0
    1.5328   -1.7025    0.0000 O   0  0  0  0  0  0  0  0  0  0  0  0
    0.7075   -1.5154    0.0000 C   0  0  1  0  0  0  0  0  0  0  0  0
   -0.1167   -1.7604    0.0000 C   0  0  0  0  0  0  0  0  0  0  0  0
   -0.3024   -2.5642    0.0000 O   0  0  0  0  0  0  0  0  0  0  0  0
   -0.7429   -1.1850    0.0000 C   0  0  0  0  0  0  0  0  0  0  0  0
   -0.4085   -0.3330    0.0000 C   0  0  0  0  0  0  0  0  0  0  0  0
  1  2  1  0  0  0  0
  2  3  1  0  0  0  0
  3  4  1  0  0  0  0
  5  4  1  0  0  0  0
  5  6  1  0  0  0  0
  6  7  1  0  0  0  0
  7  2  1  6  0  0  0
  7  8  1  0  0  0  0
  8  9  1  0  0  0  0
  9 10  2  0  0  0  0
  5 10  1  6  0  0  0
 10 11  1  0  0  0  0
 11 12  2  0  0  0  0
 12 13  1  0  0  0  0
 13 14  2  0  0  0  0
  9 14  1  0  0  0  0
 12 15  1  0  0  0  0
 15 16  1  0  0  0  0
 11 17  1  0  0  0  0
 18 17  1  1  0  0  0
  5 18  1  0  0  0  0
 18 19  1  0  0  0  0
 19 20  2  0  0  0  0
 19 21  1  0  0  0  0
 21 22  1  0  0  0  0
  6 22  1  1  0  0  0
M  END
> <Molar mass [g/mol] [MProp:scalar:double]>
299.37

> <Exact mass [Da] [MProp:scalar:double]>
299.15214354

> <Formula>
C18H21NO3

> <Composition>
C (72.22%), H (7.07%), N (4.68%), O (16.03%)

> <Lipinski's rule of five [MProp:scalar:boolean]>
true

> <Atom count [MProp:scalar:integer]>
43

> <Heavy atom count [MProp:scalar:integer]>
22

> <Asymmetric atom count [MProp:scalar:integer]>
4

> <Rotatable bond count [MProp:scalar:integer]>
1

> <Ring count [MProp:scalar:integer]>
5

> <Aromatic ring count [MProp:scalar:integer]>
1

> <Hetero ring count [MProp:scalar:integer]>
2

> <FSP3 [MProp:scalar:double]>
0.61

> <Hydrogen bond donor count [MProp:scalar:integer]>
0

> <Hydrogen bond acceptor count [MProp:scalar:integer]>
4

> <Formal charge [MProp:scalar:integer]>
0

> <Topological polar surface area [A^2] [MProp:scalar:double]>
38.77

> <Polarizability [A^3] [MProp:scalar:double]>
32.38

> <Molar refractivity [cm^3/mol] [MProp:scalar:double]>
82.74

> <Van der Waals volume [A^3] [MProp:scalar:double]>
274.37

> <Minimum projection area [A^2] [MProp:scalar:double]>
54.08

> <Maximum projection area [A^2] [MProp:scalar:double]>
75.7

> <Minimum projection radius [A] [MProp:scalar:double]>
4.96

> <Maximum projection radius [A] [MProp:scalar:double]>
6.39

> <Van der Waals surface area [A^2] [MProp:scalar:double]>
443.83

> <Solvent accessible surface area [A^2] [MProp:scalar:double]>
426.27

> <Strongest acidic pKa>
N/A

> <Strongest basic pKa [MProp:scalar:double]>
8.87

> <Isoelectric point>
N/A

> <Intrinsic solubility [logS] [MProp:scalar:double]>
-2.05

> <Solubility category>
High

> <logP [MProp:scalar:double]>
1.96

> <logD_PH0 [MProp:scalar:double]>
-1.54

> <logD_PH1 [MProp:scalar:double]>
-1.54

> <logD_PH2 [MProp:scalar:double]>
-1.54

> <logD_PH3 [MProp:scalar:double]>
-1.54

> <logD_PH4 [MProp:scalar:double]>
-1.52

> <logD_PH5 [MProp:scalar:double]>
-1.39

> <logD_PH6 [MProp:scalar:double]>
-0.82

> <logD_PH7 [MProp:scalar:double]>
0.1

> <logD_PH8 [MProp:scalar:double]>
1.04

> <logD_PH9 [MProp:scalar:double]>
1.72

> <logD_PH10 [MProp:scalar:double]>
1.93

> <logD_PH11 [MProp:scalar:double]>
1.96

> <logD_PH12 [MProp:scalar:double]>
1.96

> <logD_PH13 [MProp:scalar:double]>
1.96

> <logD_PH14 [MProp:scalar:double]>
1.96

> <HLB [MProp:scalar:double]>
11.75

> <IUPAC name>
(1S,5R,13R,17R)-10-methoxy-4-methyl-12-oxa-4-azapentacyclo[9.6.1.0¹,¹³.0⁵,¹⁷.0⁷,¹⁸]octadeca-7(18),8,10-trien-14-one

> <SMILES>
COC1=C2O[C@H]3C(=O)CC[C@H]4[C@H]5CC(C=C1)=C2[C@@]34CCN5C

> <InChI>
InChI=1S/C18H21NO3/c1-19-8-7-18-11-4-5-13(20)17(18)22-16-14(21-2)6-3-10(15(16)18)9-12(11)19/h3,6,11-12,17H,4-5,7-9H2,1-2H3/t11-,12-,17+,18+/m0/s1

> <InChIKey>
LLPOLZWFYMWNKH-CMKMFDCUSA-N

> <Traditional name>
hydrocodone

> <Common names>
(-)-dihydrocodeinone; dihydrocodeinone; hidrocodona; hidrocodona [inn-spanish]; hydrocodon; hydrocodone; hydrocodonum; hydrocone; hydroconum; idrocodone

> <CAS Registry Numbers(R)>
125-29-1, 50678-79-0

$$$$
Ibuprofen
  Mrv2222 01232613222D          

 15 15  0  0  0  0            999 V2000
    0.0000    3.3000    0.0000 C   0  0  0  0  0  0  0  0  0  0  0  0
    0.0000    2.4750    0.0000 C   0  0  0  0  0  0  0  0  0  0  0  0
   -0.7145    2.0625    0.0000 C   0  0  0  0  0  0  0  0  0  0  0  0
    0.7145    2.0625    0.0000 C   0  0  0  0  0  0  0  0  0  0  0  0
    0.7145    1.2375    0.0000 C   0  0  0  0  0  0  0  0  0  0  0  0
    1.4289    0.8250    0.0000 C   0  0  0  0  0  0  0  0  0  0  0  0
    1.4289    0.0000    0.0000 C   0  0  0  0  0  0  0  0  0  0  0  0
    0.7145   -0.4125    0.0000 C   0  0  0  0  0  0  0  0  0  0  0  0
    0.0000    0.0000    0.0000 C   0  0  0  0  0  0  0  0  0  0  0  0
    0.0000    0.8250    0.0000 C   0  0  0  0  0  0  0  0  0  0  0  0
    0.7145   -1.2375    0.0000 C   0  0  0  0  0  0  0  0  0  0  0  0
    1.4289   -1.6500    0.0000 C   0  0  0  0  0  0  0  0  0  0  0  0
    0.0000   -1.6500    0.0000 C   0  0  0  0  0  0  0  0  0  0  0  0
    0.0000   -2.4750    0.0000 O   0  0  0  0  0  0  0  0  0  0  0  0
   -0.7145   -1.2375    0.0000 O   0  0  0  0  0  0  0  0  0  0  0  0
  1  2  1  0  0  0  0
  2  3  1  0  0  0  0
  2  4  1  0  0  0  0
  4  5  1  0  0  0  0
  5  6  2  0  0  0  0
  6  7  1  0  0  0  0
  7  8  2  0  0  0  0
  8  9  1  0  0  0  0
  9 10  2  0  0  0  0
  5 10  1  0  0  0  0
  8 11  1  0  0  0  0
 11 12  1  0  0  0  0
 11 13  1  0  0  0  0
 13 14  2  0  0  0  0
 13 15  1  0  0  0  0
M  END
> <Molar mass [g/mol] [MProp:scalar:double]>
206.285

> <Exact mass [Da] [MProp:scalar:double]>
206.13067982

> <Formula>
C13H18O2

> <Composition>
C (75.69%), H (8.80%), O (15.51%)

> <Lipinski's rule of five [MProp:scalar:boolean]>
true

> <Atom count [MProp:scalar:integer]>
33

> <Heavy atom count [MProp:scalar:integer]>
15

> <Asymmetric atom count [MProp:scalar:integer]>
1

> <Rotatable bond count [MProp:scalar:integer]>
4

> <Ring count [MProp:scalar:integer]>
1

> <Aromatic ring count [MProp:scalar:integer]>
1

> <Hetero ring count [MProp:scalar:integer]>
0

> <FSP3 [MProp:scalar:double]>
0.46

> <Hydrogen bond donor count [MProp:scalar:integer]>
1

> <Hydrogen bond acceptor count [MProp:scalar:integer]>
2

> <Formal charge [MProp:scalar:integer]>
0

> <Topological polar surface area [A^2] [MProp:scalar:double]>
37.3

> <Polarizability [A^3] [MProp:scalar:double]>
23.65

> <Molar refractivity [cm^3/mol] [MProp:scalar:double]>
60.73

> <Van der Waals volume [A^3] [MProp:scalar:double]>
211.73

> <Minimum projection area [A^2] [MProp:scalar:double]>
35.89

> <Maximum projection area [A^2] [MProp:scalar:double]>
64.55

> <Minimum projection radius [A] [MProp:scalar:double]>
3.78

> <Maximum projection radius [A] [MProp:scalar:double]>
6.65

> <Van der Waals surface area [A^2] [MProp:scalar:double]>
356.31

> <Solvent accessible surface area [A^2] [MProp:scalar:double]>
430.13

> <Strongest acidic pKa [MProp:scalar:double]>
4.85

> <Strongest basic pKa>
N/A

> <Isoelectric point>
N/A

> <Intrinsic solubility [logS] [MProp:scalar:double]>
-3.54

> <Solubility category>
Moderate

> <logP [MProp:scalar:double]>
3.84

> <logD_PH0 [MProp:scalar:double]>
3.84

> <logD_PH1 [MProp:scalar:double]>
3.84

> <logD_PH2 [MProp:scalar:double]>
3.84

> <logD_PH3 [MProp:scalar:double]>
3.84

> <logD_PH4 [MProp:scalar:double]>
3.79

> <logD_PH5 [MProp:scalar:double]>
3.46

> <logD_PH6 [MProp:scalar:double]>
2.67

> <logD_PH7 [MProp:scalar:double]>
1.71

> <logD_PH8 [MProp:scalar:double]>
0.85

> <logD_PH9 [MProp:scalar:double]>
0.41

> <logD_PH10 [MProp:scalar:double]>
0.32

> <logD_PH11 [MProp:scalar:double]>
0.32

> <logD_PH12 [MProp:scalar:double]>
0.31

> <logD_PH13 [MProp:scalar:double]>
0.31

> <logD_PH14 [MProp:scalar:double]>
0.31

> <HLB [MProp:scalar:double]>
4.49

> <IUPAC name>
2-[4-(2-methylpropyl)phenyl]propanoic acid

> <SMILES>
CC(C)CC1=CC=C(C=C1)C(C)C(O)=O

> <InChI>
InChI=1/C13H18O2/c1-9(2)8-11-4-6-12(7-5-11)10(3)13(14)15/h4-7,9-10H,8H2,1-3H3,(H,14,15)

> <InChIKey>
HEFNNWSXXWATRW-UHFFFAOYNA-N

> <Traditional name>
ibuprofen

> <Common names>
(+-)-ibuprofen; (+-)-ibuprophen; (+-)-isomer ibuprofen; (R)-ibuprofen; (R)-isomer ibuprofen; (RS)-ibuprofen; (S)-ibuprofen; (S)-isomer ibuprofen; (r)-ibuprofen; (r)-isomer ibuprofen; (s)-ibuprofen; (s)-isomer ibuprofen; Anco; Cobo; Drin; I.V. solution, ibuprofen; Ibol; Ibu; Ibu-Slo; Ibu-Tab; Ifen; NeoProfen; Urem; aches-N-pain; act-3; actiprofen; adran; advil; advil liqui-gels; advil migraine liqui-gels; ak+C2278tren; alaxan; algofen; aluminum salt ibuprofen; amersol; amibufen; anafen; andran; anflagen; antagil; antalfene; antarene; antiflam; apo-ibuprofen; apsifen; apsifen-F; artofen; artril; artril 300; balkaprofen; betaprofen; bloom; bluton; brofen; brufanic; brufen; brufen 400; brufen retard; bruflam; brufort; buburone; bufeno; bufigen; bukrefen; bupron; buracaps; burana; butacortelone; butylenin; calcium salt ibuprofen; cap-profen; carol; cesra; children advil; children advil-flavored; children elixsure; children ibuprofen; children motrin; children's advil; children's advil-flavored; children's elixsure; children's ibuprofen; children's motrin; citalgan; codral; codral period pain; combiflam; copper (2+) salt ibuprofen; cunil; daiprophen; dalsy; dansida; deep relief; dentigoa; dexibuprofen (product); dexibuprofen (substance); dibufen; dignoflex; dolgin; dolgirid; dolgit; dolibu; dolmaral; dolo puren; dolo-dolgit; dolocyl; dolofen; dolofen-F; dolofin; dolofort; dologel; dolomax; doloren; dolormin; doltibil; dolven; donjust B; dorival; duafen; dularbuprofen; duobrus; dura-ibu; duralbuprofen; dysdolen; easifon; ebufac; emflam; emflam-200; epobron; eputex; ergix; esprenit; exneural; faspic; femadon; femafen; femapirin; femidol; fenbid; fenbid spansule; fendol; fenspan; fibraflex; gelufene; gofen; grefen; gynofug; haltran; hemagene tailleur; i.v. solution, ibuprofen; ibren; ibu-attritin; ibu-slo; ibu-slow; ibu-tab 200; ibubest; ibucasen; ibudol; ibudolor; ibufen; ibuflamar; ibufug; ibugel; ibugen; ibugesic; ibuhexal; ibulagic; ibular; ibulav; ibuleve; ibulgan; ibumed; ibumerck; ibumetin; ibupirac; ibuprin; ibuprocin; ibuprofen; ibuprofen (product); ibuprofen (substance); ibuprofen I.V. solution; ibuprofen i.v. solution; ibuprofen preparation; ibuprofen zinc; ibuprofen, (+-)-; ibuprofen, (+-)-isomer; ibuprofen, (R)-; ibuprofen, (R)-isomer; ibuprofen, (S)-; ibuprofen, (S)-isomer; ibuprofen, (r)-; ibuprofen, (r)-isomer; ibuprofen, (s)-; ibuprofen, (s)-isomer; ibuprofen, aluminum salt; ibuprofen, calcium salt; ibuprofen, copper (2+) salt; ibuprofen, magnesium salt; ibuprofen, potassium salt; ibuprofen, sodium salt; ibuprofen, zinc salt; ibuprofen-zinc; ibuprofene; ibuprofeno; ibuprofenum; ibuprohm; ibusal; ibutid; ibuβ; inabrin; inflam; inoven; ipren; irfen; isodol; jenaprofen; junifen; junior strength advil; junior strength ibuprofen; junior strength motrin; kesan; kontagripp mono; kratalgin; lamidon; lebrufen; librofem; lidifen; liptan; lopane; magnesium salt ibuprofen; malafene; manypren; medipren; melfen; mensoton; midol; midol 200; moment; motrin; motrin IB; motrin migraine pain; mynosedin; nagifen-D; napacetin; narfen; neo-helvagit; neo-mindol; neobrufen; nerofen; noalgil; nobafon; nobfelon; nobfen; nobgen; noritis; norton; novadol; novo dioxadol; novo-profen; novogent; novogent N; novoprofen; nuprilan; nuprin; nurofen; optifen; opturem; oralfene; ostarin; ostofen; ozonol; p-isobutyl-2-phenylpropionate; paduden; panafen; pantrop; paxofen; pedia-profen; pediaprofen; pediatric advil; perofen; potassium salt ibuprofen; proartinal; profen; proflex; propionic acid-ibuprofen; provon; quadrax; rafen; ranofen; rebugen; relcofen; rhinadvil; rofen; roidenin; rufen; rufin; rupan; sadefen; salivia; salprofen; salt ibuprofen, magnesium; salt ibuprofen, sodium; salt ibuprofen, zinc; schmerz-dolgit; seclodin; sednafen; seklodin; seskafen; siyafen; sodium salt ibuprofen; solpaflex; solufen; stelar; sugafen; suprafen; suspren; syntofene; tab-profen; tabalon; tabalon 400; tatanal; tempil; tofen; togal N; tonal; trauma dolgit gel; trauma-dolgit gel; traumadolgit gel; trendar; unipron; upfen; uprofen; zafen; zinc salt ibuprofen; zofen; 布洛芬

> <CAS Registry Numbers(R)>
58560-75-1, 15687-27-1

$$$$
Imidacloprid
  Mrv2222 01232613222D          

 17 18  0  0  0  0            999 V2000
    2.4492   -2.5687    0.0000 C    0  0  0  0  0  0  0  0  0  0  0  0
    1.6242   -2.5687    0.0000 C    0  0  0  0  0  0  0  0  0  0  0  0
    1.3693   -1.7840    0.0000 N    0  0  0  0  0  0  0  0  0  0  0  0
    2.0367   -1.2991    0.0000 C    0  0  0  0  0  0  0  0  0  0  0  0
    2.0367   -0.4741    0.0000 N    0  0  0  0  0  0  0  0  0  0  0  0
    2.7512   -0.0616    0.0000 N    0  3  0  0  0  0  0  0  0  0  0  0
    2.7512    0.7634    0.0000 O    0  0  0  0  0  0  0  0  0  0  0  0
    3.4656   -0.4741    0.0000 O    0  5  0  0  0  0  0  0  0  0  0  0
    2.7041   -1.7840    0.0000 N    0  0  0  0  0  0  0  0  0  0  0  0
    0.5846   -1.5291    0.0000 C    0  0  0  0  0  0  0  0  0  0  0  0
    0.4131   -0.7221    0.0000 C    0  0  0  0  0  0  0  0  0  0  0  0
   -0.3715   -0.4672    0.0000 C    0  0  0  0  0  0  0  0  0  0  0  0
   -0.5430    0.3398    0.0000 N    0  0  0  0  0  0  0  0  0  0  0  0
    0.0701    0.8918    0.0000 C    0  0  0  0  0  0  0  0  0  0  0  0
    0.8547    0.6369    0.0000 C    0  0  0  0  0  0  0  0  0  0  0  0
    1.0262   -0.1701    0.0000 C    0  0  0  0  0  0  0  0  0  0  0  0
   -0.1015    1.6988    0.0000 Cl   0  0  0  0  0  0  0  0  0  0  0  0
  1  2  1  0  0  0  0
  2  3  1  0  0  0  0
  3  4  1  0  0  0  0
  4  5  2  0  0  0  0
  5  6  1  0  0  0  0
  6  7  2  0  0  0  0
  6  8  1  0  0  0  0
  4  9  1  0  0  0  0
  1  9  1  0  0  0  0
  3 10  1  0  0  0  0
 10 11  1  0  0  0  0
 11 12  2  0  0  0  0
 12 13  1  0  0  0  0
 13 14  2  0  0  0  0
 14 15  1  0  0  0  0
 15 16  2  0  0  0  0
 11 16  1  0  0  0  0
 14 17  1  0  0  0  0
M  END
> <Molar mass [g/mol] [MProp:scalar:double]>
255.66

> <Exact mass [Da] [MProp:scalar:double]>
255.0523023

> <Formula>
C9H10ClN5O2

> <Composition>
C (42.28%), H (3.94%), Cl (13.87%), N (27.39%), O (12.52%)

> <Lipinski's rule of five [MProp:scalar:boolean]>
true

> <Atom count [MProp:scalar:integer]>
27

> <Heavy atom count [MProp:scalar:integer]>
17

> <Asymmetric atom count [MProp:scalar:integer]>
0

> <Rotatable bond count [MProp:scalar:integer]>
3

> <Ring count [MProp:scalar:integer]>
2

> <Aromatic ring count [MProp:scalar:integer]>
1

> <Hetero ring count [MProp:scalar:integer]>
2

> <FSP3 [MProp:scalar:double]>
0.33

> <Hydrogen bond donor count [MProp:scalar:integer]>
1

> <Hydrogen bond acceptor count [MProp:scalar:integer]>
6

> <Formal charge [MProp:scalar:integer]>
0

> <Topological polar surface area [A^2] [MProp:scalar:double]>
83.66

> <Polarizability [A^3] [MProp:scalar:double]>
23.06

> <Molar refractivity [cm^3/mol] [MProp:scalar:double]>
62.54

> <Van der Waals volume [A^3] [MProp:scalar:double]>
199.15

> <Minimum projection area [A^2] [MProp:scalar:double]>
38.87

> <Maximum projection area [A^2] [MProp:scalar:double]>
64.97

> <Minimum projection radius [A] [MProp:scalar:double]>
4.22

> <Maximum projection radius [A] [MProp:scalar:double]>
6.49

> <Van der Waals surface area [A^2] [MProp:scalar:double]>
320.87

> <Solvent accessible surface area [A^2] [MProp:scalar:double]>
398.54

> <Strongest acidic pKa [MProp:scalar:double]>
14.94

> <Strongest basic pKa [MProp:scalar:double]>
-0.12

> <Isoelectric point [MProp:scalar:double]>
7.41

> <Intrinsic solubility [logS] [MProp:scalar:double]>
-2.78

> <Solubility category>
High

> <logP [MProp:scalar:double]>
0.53

> <logD_PH0 [MProp:scalar:double]>
0.28

> <logD_PH1 [MProp:scalar:double]>
0.5

> <logD_PH2 [MProp:scalar:double]>
0.53

> <logD_PH3 [MProp:scalar:double]>
0.53

> <logD_PH4 [MProp:scalar:double]>
0.53

> <logD_PH5 [MProp:scalar:double]>
0.53

> <logD_PH6 [MProp:scalar:double]>
0.53

> <logD_PH7 [MProp:scalar:double]>
0.53

> <logD_PH8 [MProp:scalar:double]>
0.53

> <logD_PH9 [MProp:scalar:double]>
0.53

> <logD_PH10 [MProp:scalar:double]>
0.53

> <logD_PH11 [MProp:scalar:double]>
0.53

> <logD_PH12 [MProp:scalar:double]>
0.53

> <logD_PH13 [MProp:scalar:double]>
0.53

> <logD_PH14 [MProp:scalar:double]>
0.49

> <HLB [MProp:scalar:double]>
15.68

> <IUPAC name>
2-chloro-5-{[(2E)-2-(nitroimino)imidazolidin-1-yl]methyl}pyridine

> <SMILES>
[O-][N+](=O)\N=C1/NCCN1CC1=CN=C(Cl)C=C1

> <InChI>
InChI=1S/C9H10ClN5O2/c10-8-2-1-7(5-12-8)6-14-4-3-11-9(14)13-15(16)17/h1-2,5H,3-4,6H2,(H,11,13)

> <InChIKey>
YWTYJOPNNQFBPC-UHFFFAOYSA-N

> <Traditional name>
C9H10clN5O2

> <Common names>
(E)-imidacloprid

> <CAS Registry Numbers(R)>
105827-78-9, 138261-41-3

$$$$
Isoprocarb
  Mrv2222 01232613222D          

 14 14  0  0  0  0            999 V2000
    1.4289    2.4750    0.0000 C   0  0  0  0  0  0  0  0  0  0  0  0
    0.7145    2.0625    0.0000 C   0  0  0  0  0  0  0  0  0  0  0  0
    0.0000    2.4750    0.0000 C   0  0  0  0  0  0  0  0  0  0  0  0
    0.7145    1.2375    0.0000 C   0  0  0  0  0  0  0  0  0  0  0  0
    1.4289    0.8250    0.0000 C   0  0  0  0  0  0  0  0  0  0  0  0
    1.4289    0.0000    0.0000 C   0  0  0  0  0  0  0  0  0  0  0  0
    0.7145   -0.4125    0.0000 C   0  0  0  0  0  0  0  0  0  0  0  0
    0.0000    0.0000    0.0000 C   0  0  0  0  0  0  0  0  0  0  0  0
    0.0000    0.8250    0.0000 C   0  0  0  0  0  0  0  0  0  0  0  0
   -0.7145    1.2375    0.0000 O   0  0  0  0  0  0  0  0  0  0  0  0
   -1.4289    0.8250    0.0000 C   0  0  0  0  0  0  0  0  0  0  0  0
   -1.4289    0.0000    0.0000 O   0  0  0  0  0  0  0  0  0  0  0  0
   -2.1434    1.2375    0.0000 N   0  0  0  0  0  0  0  0  0  0  0  0
   -2.8579    0.8250    0.0000 C   0  0  0  0  0  0  0  0  0  0  0  0
  1  2  1  0  0  0  0
  2  3  1  0  0  0  0
  2  4  1  0  0  0  0
  4  5  2  0  0  0  0
  5  6  1  0  0  0  0
  6  7  2  0  0  0  0
  7  8  1  0  0  0  0
  8  9  2  0  0  0  0
  4  9  1  0  0  0  0
  9 10  1  0  0  0  0
 10 11  1  0  0  0  0
 11 12  2  0  0  0  0
 11 13  1  0  0  0  0
 13 14  1  0  0  0  0
M  END
> <Molar mass [g/mol] [MProp:scalar:double]>
193.246

> <Exact mass [Da] [MProp:scalar:double]>
193.110278727

> <Formula>
C11H15NO2

> <Composition>
C (68.37%), H (7.82%), N (7.25%), O (16.56%)

> <Lipinski's rule of five [MProp:scalar:boolean]>
true

> <Atom count [MProp:scalar:integer]>
29

> <Heavy atom count [MProp:scalar:integer]>
14

> <Asymmetric atom count [MProp:scalar:integer]>
0

> <Rotatable bond count [MProp:scalar:integer]>
3

> <Ring count [MProp:scalar:integer]>
1

> <Aromatic ring count [MProp:scalar:integer]>
1

> <Hetero ring count [MProp:scalar:integer]>
0

> <FSP3 [MProp:scalar:double]>
0.36

> <Hydrogen bond donor count [MProp:scalar:integer]>
1

> <Hydrogen bond acceptor count [MProp:scalar:integer]>
1

> <Formal charge [MProp:scalar:integer]>
0

> <Topological polar surface area [A^2] [MProp:scalar:double]>
38.33

> <Polarizability [A^3] [MProp:scalar:double]>
21.33

> <Molar refractivity [cm^3/mol] [MProp:scalar:double]>
54.95

> <Van der Waals volume [A^3] [MProp:scalar:double]>
189.7

> <Minimum projection area [A^2] [MProp:scalar:double]>
38.56

> <Maximum projection area [A^2] [MProp:scalar:double]>
64.06

> <Minimum projection radius [A] [MProp:scalar:double]>
4.56

> <Maximum projection radius [A] [MProp:scalar:double]>
5.58

> <Van der Waals surface area [A^2] [MProp:scalar:double]>
322.23

> <Solvent accessible surface area [A^2] [MProp:scalar:double]>
419.91

> <Strongest acidic pKa [MProp:scalar:double]>
14.77

> <Strongest basic pKa>
N/A

> <Isoelectric point>
N/A

> <Intrinsic solubility [logS] [MProp:scalar:double]>
-3.0

> <Solubility category>
High

> <logP [MProp:scalar:double]>
2.72

> <logD_PH0 [MProp:scalar:double]>
2.72

> <logD_PH1 [MProp:scalar:double]>
2.72

> <logD_PH2 [MProp:scalar:double]>
2.72

> <logD_PH3 [MProp:scalar:double]>
2.72

> <logD_PH4 [MProp:scalar:double]>
2.72

> <logD_PH5 [MProp:scalar:double]>
2.72

> <logD_PH6 [MProp:scalar:double]>
2.72

> <logD_PH7 [MProp:scalar:double]>
2.72

> <logD_PH8 [MProp:scalar:double]>
2.72

> <logD_PH9 [MProp:scalar:double]>
2.72

> <logD_PH10 [MProp:scalar:double]>
2.72

> <logD_PH11 [MProp:scalar:double]>
2.72

> <logD_PH12 [MProp:scalar:double]>
2.71

> <logD_PH13 [MProp:scalar:double]>
2.71

> <logD_PH14 [MProp:scalar:double]>
2.66

> <HLB [MProp:scalar:double]>
7.06

> <IUPAC name>
2-(propan-2-yl)phenyl N-methylcarbamate

> <SMILES>
CNC(=O)OC1=CC=CC=C1C(C)C

> <InChI>
InChI=1S/C11H15NO2/c1-8(2)9-6-4-5-7-10(9)14-11(13)12-3/h4-8H,1-3H3,(H,12,13)

> <InChIKey>
QBSJMKIUCUGGNG-UHFFFAOYSA-N

> <Traditional name>
isoprocarb

> <Common names>
caswell no. 512B; epa pesticide chemical code 512300; etrofolan; hytox; isoprocarb; isoprocarbe; mipcin; mipcine; mipsin; ppc 3

> <CAS Registry Numbers(R)>
2631-40-5

$$$$
Ketamine
  Mrv2222 01232613222D          

 16 17  0  0  0  0            999 V2000
    0.9966    0.3627    0.0000 C    0  0  0  0  0  0  0  0  0  0  0  0
    0.7145   -0.4125    0.0000 N    0  0  0  0  0  0  0  0  0  0  0  0
    1.2448   -1.0445    0.0000 C    0  0  0  0  0  0  0  0  0  0  0  0
    1.9592   -1.4570    0.0000 C    0  0  0  0  0  0  0  0  0  0  0  0
    1.9592   -2.2820    0.0000 C    0  0  0  0  0  0  0  0  0  0  0  0
    1.2448   -2.6945    0.0000 C    0  0  0  0  0  0  0  0  0  0  0  0
    0.5303   -2.2820    0.0000 C    0  0  0  0  0  0  0  0  0  0  0  0
    0.5303   -1.4570    0.0000 C    0  0  0  0  0  0  0  0  0  0  0  0
   -0.1842   -1.0445    0.0000 O    0  0  0  0  0  0  0  0  0  0  0  0
    1.7751   -0.4125    0.0000 C    0  0  0  0  0  0  0  0  0  0  0  0
    1.4929    0.3627    0.0000 C    0  0  0  0  0  0  0  0  0  0  0  0
    2.0232    0.9947    0.0000 C    0  0  0  0  0  0  0  0  0  0  0  0
    2.8357    0.8515    0.0000 C    0  0  0  0  0  0  0  0  0  0  0  0
    3.1178    0.0762    0.0000 C    0  0  0  0  0  0  0  0  0  0  0  0
    2.5875   -0.5558    0.0000 C    0  0  0  0  0  0  0  0  0  0  0  0
    2.8697   -1.3310    0.0000 Cl   0  0  0  0  0  0  0  0  0  0  0  0
  1  2  1  0  0  0  0
  2  3  1  0  0  0  0
  3  4  1  0  0  0  0
  4  5  1  0  0  0  0
  5  6  1  0  0  0  0
  6  7  1  0  0  0  0
  7  8  1  0  0  0  0
  3  8  1  0  0  0  0
  8  9  2  0  0  0  0
  3 10  1  0  0  0  0
 10 11  2  0  0  0  0
 11 12  1  0  0  0  0
 12 13  2  0  0  0  0
 13 14  1  0  0  0  0
 14 15  2  0  0  0  0
 10 15  1  0  0  0  0
 15 16  1  0  0  0  0
M  END
> <Molar mass [g/mol] [MProp:scalar:double]>
237.73

> <Exact mass [Da] [MProp:scalar:double]>
237.0920418

> <Formula>
C13H16ClNO

> <Composition>
C (65.68%), H (6.78%), Cl (14.91%), N (5.89%), O (6.73%)

> <Lipinski's rule of five [MProp:scalar:boolean]>
true

> <Atom count [MProp:scalar:integer]>
32

> <Heavy atom count [MProp:scalar:integer]>
16

> <Asymmetric atom count [MProp:scalar:integer]>
1

> <Rotatable bond count [MProp:scalar:integer]>
2

> <Ring count [MProp:scalar:integer]>
2

> <Aromatic ring count [MProp:scalar:integer]>
1

> <Hetero ring count [MProp:scalar:integer]>
0

> <FSP3 [MProp:scalar:double]>
0.46

> <Hydrogen bond donor count [MProp:scalar:integer]>
1

> <Hydrogen bond acceptor count [MProp:scalar:integer]>
2

> <Formal charge [MProp:scalar:integer]>
0

> <Topological polar surface area [A^2] [MProp:scalar:double]>
29.1

> <Polarizability [A^3] [MProp:scalar:double]>
25.95

> <Molar refractivity [cm^3/mol] [MProp:scalar:double]>
65.55

> <Van der Waals volume [A^3] [MProp:scalar:double]>
218.9

> <Minimum projection area [A^2] [MProp:scalar:double]>
46.03

> <Maximum projection area [A^2] [MProp:scalar:double]>
60.54

> <Minimum projection radius [A] [MProp:scalar:double]>
4.29

> <Maximum projection radius [A] [MProp:scalar:double]>
5.18

> <Van der Waals surface area [A^2] [MProp:scalar:double]>
355.35

> <Solvent accessible surface area [A^2] [MProp:scalar:double]>
370.21

> <Strongest acidic pKa>
N/A

> <Strongest basic pKa [MProp:scalar:double]>
7.29

> <Isoelectric point>
N/A

> <Intrinsic solubility [logS] [MProp:scalar:double]>
-2.96

> <Solubility category>
High

> <logP [MProp:scalar:double]>
3.35

> <logD_PH0 [MProp:scalar:double]>
0.11

> <logD_PH1 [MProp:scalar:double]>
0.11

> <logD_PH2 [MProp:scalar:double]>
0.11

> <logD_PH3 [MProp:scalar:double]>
0.14

> <logD_PH4 [MProp:scalar:double]>
0.38

> <logD_PH5 [MProp:scalar:double]>
1.1

> <logD_PH6 [MProp:scalar:double]>
2.04

> <logD_PH7 [MProp:scalar:double]>
2.88

> <logD_PH8 [MProp:scalar:double]>
3.27

> <logD_PH9 [MProp:scalar:double]>
3.34

> <logD_PH10 [MProp:scalar:double]>
3.35

> <logD_PH11 [MProp:scalar:double]>
3.35

> <logD_PH12 [MProp:scalar:double]>
3.35

> <logD_PH13 [MProp:scalar:double]>
3.35

> <logD_PH14 [MProp:scalar:double]>
3.35

> <HLB [MProp:scalar:double]>
9.88

> <IUPAC name>
2-(2-chlorophenyl)-2-(methylamino)cyclohexan-1-one

> <SMILES>
CNC1(CCCCC1=O)C1=CC=CC=C1Cl

> <InChI>
InChI=1/C13H16ClNO/c1-15-13(9-5-4-8-12(13)16)10-6-2-3-7-11(10)14/h2-3,6-7,15H,4-5,8-9H2,1H3

> <InChIKey>
YQEZLKZALYSWHR-UHFFFAOYNA-N

> <Traditional name>
ketamine

> <Common names>
(+-)-ketamine; DL-ketamine; calipsol; calypsol; cetamina; clsta 20; dl-ketamine; kalipsol; ketalar base; ketamine; ketamine (product); ketamine (substance); ketamine hydrochloride (product); ketamine hydrochloride (substance); ketamine hydrochloride preparation; ketamine preparation; ketaminum; ketaset; ketaset (product); ketolar; special K; special K [street name]

> <CAS Registry Numbers(R)>
6740-88-1, 100477-72-3

$$$$
Lamotrigine
  Mrv2222 01232613222D          

 16 17  0  0  0  0            999 V2000
    1.4289   -2.4750    0.0000 C    0  0  0  0  0  0  0  0  0  0  0  0
    0.7145   -2.8875    0.0000 C    0  0  0  0  0  0  0  0  0  0  0  0
    0.0000   -2.4750    0.0000 C    0  0  0  0  0  0  0  0  0  0  0  0
    0.0000   -1.6500    0.0000 C    0  0  0  0  0  0  0  0  0  0  0  0
    0.7145   -1.2375    0.0000 C    0  0  0  0  0  0  0  0  0  0  0  0
    1.4289   -1.6500    0.0000 C    0  0  0  0  0  0  0  0  0  0  0  0
    0.7145   -0.4125    0.0000 Cl   0  0  0  0  0  0  0  0  0  0  0  0
   -0.7145   -1.2375    0.0000 Cl   0  0  0  0  0  0  0  0  0  0  0  0
   -0.7145   -2.8875    0.0000 C    0  0  0  0  0  0  0  0  0  0  0  0
   -0.7145   -3.7125    0.0000 C    0  0  0  0  0  0  0  0  0  0  0  0
   -1.4289   -4.1250    0.0000 N    0  0  0  0  0  0  0  0  0  0  0  0
   -2.1434   -3.7125    0.0000 C    0  0  0  0  0  0  0  0  0  0  0  0
   -2.1434   -2.8875    0.0000 N    0  0  0  0  0  0  0  0  0  0  0  0
   -1.4289   -2.4750    0.0000 N    0  0  0  0  0  0  0  0  0  0  0  0
   -2.8579   -4.1250    0.0000 N    0  0  0  0  0  0  0  0  0  0  0  0
    0.0000   -4.1250    0.0000 N    0  0  0  0  0  0  0  0  0  0  0  0
  1  2  2  0  0  0  0
  2  3  1  0  0  0  0
  3  4  2  0  0  0  0
  4  5  1  0  0  0  0
  5  6  2  0  0  0  0
  1  6  1  0  0  0  0
  5  7  1  0  0  0  0
  4  8  1  0  0  0  0
  3  9  1  0  0  0  0
  9 10  2  0  0  0  0
 10 11  1  0  0  0  0
 11 12  2  0  0  0  0
 12 13  1  0  0  0  0
 13 14  2  0  0  0  0
  9 14  1  0  0  0  0
 12 15  1  0  0  0  0
 10 16  1  0  0  0  0
M  END
> <Molar mass [g/mol] [MProp:scalar:double]>
256.09

> <Exact mass [Da] [MProp:scalar:double]>
255.0078506

> <Formula>
C9H7Cl2N5

> <Composition>
C (42.21%), H (2.76%), Cl (27.69%), N (27.35%)

> <Lipinski's rule of five [MProp:scalar:boolean]>
true

> <Atom count [MProp:scalar:integer]>
23

> <Heavy atom count [MProp:scalar:integer]>
16

> <Asymmetric atom count [MProp:scalar:integer]>
0

> <Rotatable bond count [MProp:scalar:integer]>
1

> <Ring count [MProp:scalar:integer]>
2

> <Aromatic ring count [MProp:scalar:integer]>
2

> <Hetero ring count [MProp:scalar:integer]>
1

> <FSP3 [MProp:scalar:double]>
0.0

> <Hydrogen bond donor count [MProp:scalar:integer]>
2

> <Hydrogen bond acceptor count [MProp:scalar:integer]>
5

> <Formal charge [MProp:scalar:integer]>
0

> <Topological polar surface area [A^2] [MProp:scalar:double]>
90.71

> <Polarizability [A^3] [MProp:scalar:double]>
24.7

> <Molar refractivity [cm^3/mol] [MProp:scalar:double]>
66.62

> <Van der Waals volume [A^3] [MProp:scalar:double]>
189.57

> <Minimum projection area [A^2] [MProp:scalar:double]>
32.67

> <Maximum projection area [A^2] [MProp:scalar:double]>
66.32

> <Minimum projection radius [A] [MProp:scalar:double]>
3.94

> <Maximum projection radius [A] [MProp:scalar:double]>
6.19

> <Van der Waals surface area [A^2] [MProp:scalar:double]>
280.79

> <Solvent accessible surface area [A^2] [MProp:scalar:double]>
371.38

> <Strongest acidic pKa [MProp:scalar:double]>
14.98

> <Strongest basic pKa [MProp:scalar:double]>
5.89

> <Isoelectric point [MProp:scalar:double]>
10.93

> <Intrinsic solubility [logS] [MProp:scalar:double]>
-4.43

> <Solubility category>
Low

> <logP [MProp:scalar:double]>
1.93

> <logD_PH0 [MProp:scalar:double]>
-1.03

> <logD_PH1 [MProp:scalar:double]>
-0.96

> <logD_PH2 [MProp:scalar:double]>
-0.91

> <logD_PH3 [MProp:scalar:double]>
-0.66

> <logD_PH4 [MProp:scalar:double]>
0.07

> <logD_PH5 [MProp:scalar:double]>
0.99

> <logD_PH6 [MProp:scalar:double]>
1.68

> <logD_PH7 [MProp:scalar:double]>
1.89

> <logD_PH8 [MProp:scalar:double]>
1.92

> <logD_PH9 [MProp:scalar:double]>
1.93

> <logD_PH10 [MProp:scalar:double]>
1.93

> <logD_PH11 [MProp:scalar:double]>
1.93

> <logD_PH12 [MProp:scalar:double]>
1.93

> <logD_PH13 [MProp:scalar:double]>
1.92

> <logD_PH14 [MProp:scalar:double]>
1.89

> <HLB [MProp:scalar:double]>
6.88

> <IUPAC name>
6-(2,3-dichlorophenyl)-1,2,4-triazine-3,5-diamine

> <SMILES>
NC1=NC(N)=C(N=N1)C1=C(Cl)C(Cl)=CC=C1

> <InChI>
InChI=1S/C9H7Cl2N5/c10-5-3-1-2-4(6(5)11)7-8(12)14-9(13)16-15-7/h1-3H,(H4,12,13,14,16)

> <InChIKey>
PYZRQGJRPPTADH-UHFFFAOYSA-N

> <Traditional name>
lamotrigine

> <Common names>
C9H7cl2N5; LTG; crisomet; desitin brand of lamotrigine; faes brand of lamotrigine; glaxo wellcome brand of lamotrigine; glaxosmithkline brand of lamotrigine; juste brand of lamotrigine; labileno; lamictal; lamictal CD; lamictal XR; lamictal cd; lamictin; lamiktal; lamitor; lamotrigin; lamotrigina; lamotrigine; lamotrigine (product); lamotrigine (substance); lamotrigine preparation; lamotriginum; tocris-1611; 拉莫三嗪

> <CAS Registry Numbers(R)>
84057-84-1

$$$$
Lidocaine
  Mrv2222 01232613222D          

 17 17  0  0  0  0            999 V2000
    2.0329   -1.0461    0.0000 C   0  0  0  0  0  0  0  0  0  0  0  0
    2.8579   -1.0461    0.0000 C   0  0  0  0  0  0  0  0  0  0  0  0
    3.2704   -1.7605    0.0000 N   0  0  0  0  0  0  0  0  0  0  0  0
    2.8579   -2.4750    0.0000 C   0  0  0  0  0  0  0  0  0  0  0  0
    2.0329   -2.4750    0.0000 C   0  0  0  0  0  0  0  0  0  0  0  0
    4.0954   -1.7605    0.0000 C   0  0  0  0  0  0  0  0  0  0  0  0
    4.5079   -2.4750    0.0000 C   0  0  0  0  0  0  0  0  0  0  0  0
    4.0954   -3.1895    0.0000 O   0  0  0  0  0  0  0  0  0  0  0  0
    5.3329   -2.4750    0.0000 N   0  0  0  0  0  0  0  0  0  0  0  0
    5.7454   -3.1895    0.0000 C   0  0  0  0  0  0  0  0  0  0  0  0
    6.5704   -3.1895    0.0000 C   0  0  0  0  0  0  0  0  0  0  0  0
    6.9829   -3.9039    0.0000 C   0  0  0  0  0  0  0  0  0  0  0  0
    6.5704   -4.6184    0.0000 C   0  0  0  0  0  0  0  0  0  0  0  0
    5.7454   -4.6184    0.0000 C   0  0  0  0  0  0  0  0  0  0  0  0
    5.3329   -3.9039    0.0000 C   0  0  0  0  0  0  0  0  0  0  0  0
    4.5079   -3.9039    0.0000 C   0  0  0  0  0  0  0  0  0  0  0  0
    6.9829   -2.4750    0.0000 C   0  0  0  0  0  0  0  0  0  0  0  0
  1  2  1  0  0  0  0
  2  3  1  0  0  0  0
  3  4  1  0  0  0  0
  4  5  1  0  0  0  0
  3  6  1  0  0  0  0
  6  7  1  0  0  0  0
  7  8  2  0  0  0  0
  7  9  1  0  0  0  0
  9 10  1  0  0  0  0
 10 11  2  0  0  0  0
 11 12  1  0  0  0  0
 12 13  2  0  0  0  0
 13 14  1  0  0  0  0
 14 15  2  0  0  0  0
 10 15  1  0  0  0  0
 15 16  1  0  0  0  0
 11 17  1  0  0  0  0
M  END
> <Molar mass [g/mol] [MProp:scalar:double]>
234.343

> <Exact mass [Da] [MProp:scalar:double]>
234.173213336

> <Formula>
C14H22N2O

> <Composition>
C (71.76%), H (9.46%), N (11.95%), O (6.83%)

> <Lipinski's rule of five [MProp:scalar:boolean]>
true

> <Atom count [MProp:scalar:integer]>
39

> <Heavy atom count [MProp:scalar:integer]>
17

> <Asymmetric atom count [MProp:scalar:integer]>
0

> <Rotatable bond count [MProp:scalar:integer]>
5

> <Ring count [MProp:scalar:integer]>
1

> <Aromatic ring count [MProp:scalar:integer]>
1

> <Hetero ring count [MProp:scalar:integer]>
0

> <FSP3 [MProp:scalar:double]>
0.5

> <Hydrogen bond donor count [MProp:scalar:integer]>
1

> <Hydrogen bond acceptor count [MProp:scalar:integer]>
2

> <Formal charge [MProp:scalar:integer]>
0

> <Topological polar surface area [A^2] [MProp:scalar:double]>
32.34

> <Polarizability [A^3] [MProp:scalar:double]>
27.64

> <Molar refractivity [cm^3/mol] [MProp:scalar:double]>
73.93

> <Van der Waals volume [A^3] [MProp:scalar:double]>
244.83

> <Minimum projection area [A^2] [MProp:scalar:double]>
46.65

> <Maximum projection area [A^2] [MProp:scalar:double]>
75.17

> <Minimum projection radius [A] [MProp:scalar:double]>
4.62

> <Maximum projection radius [A] [MProp:scalar:double]>
6.75

> <Van der Waals surface area [A^2] [MProp:scalar:double]>
426.01

> <Solvent accessible surface area [A^2] [MProp:scalar:double]>
503.98

> <Strongest acidic pKa [MProp:scalar:double]>
13.78

> <Strongest basic pKa [MProp:scalar:double]>
7.75

> <Isoelectric point [MProp:scalar:double]>
10.77

> <Intrinsic solubility [logS] [MProp:scalar:double]>
-2.64

> <Solubility category>
High

> <logP [MProp:scalar:double]>
2.84

> <logD_PH0 [MProp:scalar:double]>
-0.66

> <logD_PH1 [MProp:scalar:double]>
-0.66

> <logD_PH2 [MProp:scalar:double]>
-0.66

> <logD_PH3 [MProp:scalar:double]>
-0.63

> <logD_PH4 [MProp:scalar:double]>
-0.47

> <logD_PH5 [MProp:scalar:double]>
0.16

> <logD_PH6 [MProp:scalar:double]>
1.09

> <logD_PH7 [MProp:scalar:double]>
2.02

> <logD_PH8 [MProp:scalar:double]>
2.65

> <logD_PH9 [MProp:scalar:double]>
2.82

> <logD_PH10 [MProp:scalar:double]>
2.84

> <logD_PH11 [MProp:scalar:double]>
2.84

> <logD_PH12 [MProp:scalar:double]>
2.84

> <logD_PH13 [MProp:scalar:double]>
2.78

> <logD_PH14 [MProp:scalar:double]>
2.45

> <HLB [MProp:scalar:double]>
16.27

> <IUPAC name>
2-(diethylamino)-N-(2,6-dimethylphenyl)acetamide

> <SMILES>
CCN(CC)CC(=O)NC1=C(C)C=CC=C1C

> <InChI>
InChI=1S/C14H22N2O/c1-5-16(6-2)10-13(17)15-14-11(3)8-7-9-12(14)4/h7-9H,5-6,10H2,1-4H3,(H,15,17)

> <InChIKey>
NNJVILVZKWQKPM-UHFFFAOYSA-N

> <Traditional name>
lidocaine

> <Common names>
L-caine; dilocaine; lidocaine; lidocaine (inn); lidoderm; xylocaine 5% spinal

> <CAS Registry Numbers(R)>
137-58-6, 91484-71-8

$$$$
Linalool
  Mrv2222 01232613222D          

 11 10  0  0  0  0            999 V2000
    1.2375    0.7145    0.0000 C   0  0  0  0  0  0  0  0  0  0  0  0
    0.8250    0.0000    0.0000 C   0  0  0  0  0  0  0  0  0  0  0  0
    0.0000    0.0000    0.0000 C   0  0  0  0  0  0  0  0  0  0  0  0
   -0.4125   -0.7145    0.0000 C   0  0  0  0  0  0  0  0  0  0  0  0
    0.0000   -1.4289    0.0000 C   0  0  0  0  0  0  0  0  0  0  0  0
   -0.4125   -2.1434    0.0000 C   0  0  0  0  0  0  0  0  0  0  0  0
   -1.1270   -1.7309    0.0000 C   0  0  0  0  0  0  0  0  0  0  0  0
   -0.8250   -2.8579    0.0000 C   0  0  0  0  0  0  0  0  0  0  0  0
   -0.4125   -3.5724    0.0000 C   0  0  0  0  0  0  0  0  0  0  0  0
    0.3020   -2.5559    0.0000 O   0  0  0  0  0  0  0  0  0  0  0  0
    1.2375   -0.7145    0.0000 C   0  0  0  0  0  0  0  0  0  0  0  0
  1  2  1  0  0  0  0
  2  3  2  0  0  0  0
  3  4  1  4  0  0  0
  4  5  1  0  0  0  0
  5  6  1  0  0  0  0
  6  7  1  0  0  0  0
  6  8  1  0  0  0  0
  8  9  2  0  0  0  0
  6 10  1  0  0  0  0
  2 11  1  0  0  0  0
M  END
> <Molar mass [g/mol] [MProp:scalar:double]>
154.253

> <Exact mass [Da] [MProp:scalar:double]>
154.1357652

> <Formula>
C10H18O

> <Composition>
C (77.87%), H (11.76%), O (10.37%)

> <Lipinski's rule of five [MProp:scalar:boolean]>
true

> <Atom count [MProp:scalar:integer]>
29

> <Heavy atom count [MProp:scalar:integer]>
11

> <Asymmetric atom count [MProp:scalar:integer]>
1

> <Rotatable bond count [MProp:scalar:integer]>
4

> <Ring count [MProp:scalar:integer]>
0

> <Aromatic ring count [MProp:scalar:integer]>
0

> <Hetero ring count [MProp:scalar:integer]>
0

> <FSP3 [MProp:scalar:double]>
0.6

> <Hydrogen bond donor count [MProp:scalar:integer]>
1

> <Hydrogen bond acceptor count [MProp:scalar:integer]>
1

> <Formal charge [MProp:scalar:integer]>
0

> <Topological polar surface area [A^2] [MProp:scalar:double]>
20.23

> <Polarizability [A^3] [MProp:scalar:double]>
19.31

> <Molar refractivity [cm^3/mol] [MProp:scalar:double]>
50.21

> <Van der Waals volume [A^3] [MProp:scalar:double]>
174.96

> <Minimum projection area [A^2] [MProp:scalar:double]>
31.26

> <Maximum projection area [A^2] [MProp:scalar:double]>
58.01

> <Minimum projection radius [A] [MProp:scalar:double]>
3.56

> <Maximum projection radius [A] [MProp:scalar:double]>
5.98

> <Van der Waals surface area [A^2] [MProp:scalar:double]>
293.06

> <Solvent accessible surface area [A^2] [MProp:scalar:double]>
378.23

> <Strongest acidic pKa>
N/A

> <Strongest basic pKa [MProp:scalar:double]>
-1.29

> <Isoelectric point>
N/A

> <Intrinsic solubility [logS] [MProp:scalar:double]>
-2.1

> <Solubility category>
High

> <logP [MProp:scalar:double]>
2.65

> <logD_PH0 [MProp:scalar:double]>
2.63

> <logD_PH1 [MProp:scalar:double]>
2.65

> <logD_PH2 [MProp:scalar:double]>
2.65

> <logD_PH3 [MProp:scalar:double]>
2.65

> <logD_PH4 [MProp:scalar:double]>
2.65

> <logD_PH5 [MProp:scalar:double]>
2.65

> <logD_PH6 [MProp:scalar:double]>
2.65

> <logD_PH7 [MProp:scalar:double]>
2.65

> <logD_PH8 [MProp:scalar:double]>
2.65

> <logD_PH9 [MProp:scalar:double]>
2.65

> <logD_PH10 [MProp:scalar:double]>
2.65

> <logD_PH11 [MProp:scalar:double]>
2.65

> <logD_PH12 [MProp:scalar:double]>
2.65

> <logD_PH13 [MProp:scalar:double]>
2.65

> <logD_PH14 [MProp:scalar:double]>
2.65

> <HLB [MProp:scalar:double]>
5.14

> <IUPAC name>
3,7-dimethylocta-1,6-dien-3-ol

> <SMILES>
CC(C)=CCCC(C)(O)C=C

> <InChI>
InChI=1/C10H18O/c1-5-10(4,11)8-6-7-9(2)3/h5,7,11H,1,6,8H2,2-4H3

> <InChIKey>
CDOSHBSSFJOMGT-UHFFFAOYNA-N

> <Traditional name>
linalool, (+-)-

> <Common names>
(+-)-isomer linalool; (R)-isomer linalool; (S)-isomer linalool; (r)-isomer linalool; (s)-isomer linalool; caswell no. 526A; epa pesticide chemical code 128838; fema number 2635; linalol (substance); linalool (natural); linalool, (+-)-isomer; linalool, (R)-isomer; linalool, (S)-isomer; linalool, (r)-isomer; linalool, (s)-isomer; linalool, titanium (4+) salt; p-linalool; titanium (4+) salt linalool; β-linalool

> <CAS Registry Numbers(R)>
78-70-6, 22564-99-4

$$$$
Sotalol
  Mrv2222 01232613222D          

 18 18  0  0  0  0            999 V2000
    0.0000   -2.4750    0.0000 C   0  0  0  0  0  0  0  0  0  0  0  0
    0.7145   -2.8875    0.0000 C   0  0  0  0  0  0  0  0  0  0  0  0
    0.7145   -3.7125    0.0000 C   0  0  0  0  0  0  0  0  0  0  0  0
    1.4289   -2.4750    0.0000 N   0  0  0  0  0  0  0  0  0  0  0  0
    2.1434   -2.8875    0.0000 C   0  0  0  0  0  0  0  0  0  0  0  0
    2.8579   -2.4750    0.0000 C   0  0  0  0  0  0  0  0  0  0  0  0
    3.5724   -2.8875    0.0000 C   0  0  0  0  0  0  0  0  0  0  0  0
    4.2868   -2.4750    0.0000 C   0  0  0  0  0  0  0  0  0  0  0  0
    5.0013   -2.8875    0.0000 C   0  0  0  0  0  0  0  0  0  0  0  0
    5.0013   -3.7125    0.0000 C   0  0  0  0  0  0  0  0  0  0  0  0
    4.2868   -4.1250    0.0000 C   0  0  0  0  0  0  0  0  0  0  0  0
    3.5724   -3.7125    0.0000 C   0  0  0  0  0  0  0  0  0  0  0  0
    5.7158   -4.1250    0.0000 N   0  0  0  0  0  0  0  0  0  0  0  0
    6.4302   -3.7125    0.0000 S   0  0  0  0  0  0  0  0  0  0  0  0
    7.1447   -3.3000    0.0000 O   0  0  0  0  0  0  0  0  0  0  0  0
    6.8427   -4.4270    0.0000 O   0  0  0  0  0  0  0  0  0  0  0  0
    6.0177   -2.9980    0.0000 C   0  0  0  0  0  0  0  0  0  0  0  0
    2.8579   -1.6500    0.0000 O   0  0  0  0  0  0  0  0  0  0  0  0
  1  2  1  0  0  0  0
  2  3  1  0  0  0  0
  2  4  1  0  0  0  0
  4  5  1  0  0  0  0
  5  6  1  0  0  0  0
  6  7  1  0  0  0  0
  7  8  2  0  0  0  0
  8  9  1  0  0  0  0
  9 10  2  0  0  0  0
 10 11  1  0  0  0  0
 11 12  2  0  0  0  0
  7 12  1  0  0  0  0
 10 13  1  0  0  0  0
 13 14  1  0  0  0  0
 14 15  2  0  0  0  0
 14 16  2  0  0  0  0
 14 17  1  0  0  0  0
  6 18  1  0  0  0  0
M  END
> <Molar mass [g/mol] [MProp:scalar:double]>
272.36

> <Exact mass [Da] [MProp:scalar:double]>
272.119463686

> <Formula>
C12H20N2O3S

> <Composition>
C (52.92%), H (7.40%), N (10.29%), O (17.62%), S (11.77%)

> <Lipinski's rule of five [MProp:scalar:boolean]>
true

> <Atom count [MProp:scalar:integer]>
38

> <Heavy atom count [MProp:scalar:integer]>
18

> <Asymmetric atom count [MProp:scalar:integer]>
1

> <Rotatable bond count [MProp:scalar:integer]>
5

> <Ring count [MProp:scalar:integer]>
1

> <Aromatic ring count [MProp:scalar:integer]>
1

> <Hetero ring count [MProp:scalar:integer]>
0

> <FSP3 [MProp:scalar:double]>
0.5

> <Hydrogen bond donor count [MProp:scalar:integer]>
3

> <Hydrogen bond acceptor count [MProp:scalar:integer]>
4

> <Formal charge [MProp:scalar:integer]>
0

> <Topological polar surface area [A^2] [MProp:scalar:double]>
78.43

> <Polarizability [A^3] [MProp:scalar:double]>
28.81

> <Molar refractivity [cm^3/mol] [MProp:scalar:double]>
71.12

> <Van der Waals volume [A^3] [MProp:scalar:double]>
252.47

> <Minimum projection area [A^2] [MProp:scalar:double]>
41.04

> <Maximum projection area [A^2] [MProp:scalar:double]>
79.26

> <Minimum projection radius [A] [MProp:scalar:double]>
4.05

> <Maximum projection radius [A] [MProp:scalar:double]>
7.96

> <Van der Waals surface area [A^2] [MProp:scalar:double]>
431.76

> <Solvent accessible surface area [A^2] [MProp:scalar:double]>
526.32

> <Strongest acidic pKa [MProp:scalar:double]>
8.75

> <Strongest basic pKa [MProp:scalar:double]>
9.64

> <Isoelectric point [MProp:scalar:double]>
9.17

> <Intrinsic solubility [logS] [MProp:scalar:double]>
-1.33

> <Solubility category>
High

> <logP [MProp:scalar:double]>
-0.84

> <logD_PH0 [MProp:scalar:double]>
-3.19

> <logD_PH1 [MProp:scalar:double]>
-3.19

> <logD_PH2 [MProp:scalar:double]>
-3.19

> <logD_PH3 [MProp:scalar:double]>
-3.19

> <logD_PH4 [MProp:scalar:double]>
-3.19

> <logD_PH5 [MProp:scalar:double]>
-3.17

> <logD_PH6 [MProp:scalar:double]>
-2.98

> <logD_PH7 [MProp:scalar:double]>
-2.34

> <logD_PH8 [MProp:scalar:double]>
-1.45

> <logD_PH9 [MProp:scalar:double]>
-0.84

> <logD_PH10 [MProp:scalar:double]>
-0.81

> <logD_PH11 [MProp:scalar:double]>
-0.88

> <logD_PH12 [MProp:scalar:double]>
-0.9

> <logD_PH13 [MProp:scalar:double]>
-0.93

> <logD_PH14 [MProp:scalar:double]>
-1.15

> <HLB [MProp:scalar:double]>
19.14

> <IUPAC name>
N-(4-{1-hydroxy-2-[(propan-2-yl)amino]ethyl}phenyl)methanesulfonamide

> <SMILES>
CC(C)NCC(O)C1=CC=C(NS(C)(=O)=O)C=C1

> <InChI>
InChI=1/C12H20N2O3S/c1-9(2)13-8-12(15)10-4-6-11(7-5-10)14-18(3,16)17/h4-7,9,12-15H,8H2,1-3H3

> <InChIKey>
ZBMZVLHSJCTVON-UHFFFAOYNA-N

> <Traditional name>
sotalol

> <Common names>
darob; knoll pharmaceutical brand of sotalol; sorine; sotalol; sotalol (product); sotalol (substance); sotalol preparation; sotalolum; β-cardone

> <CAS Registry Numbers(R)>
3930-20-9

$$$$
Melamine
  Mrv2222 01232613222D          

  9  9  0  0  0  0            999 V2000
    0.7145    1.2375    0.0000 C   0  0  0  0  0  0  0  0  0  0  0  0
    1.4289    0.8250    0.0000 N   0  0  0  0  0  0  0  0  0  0  0  0
    1.4289    0.0000    0.0000 C   0  0  0  0  0  0  0  0  0  0  0  0
    0.7145   -0.4125    0.0000 N   0  0  0  0  0  0  0  0  0  0  0  0
    0.0000    0.0000    0.0000 C   0  0  0  0  0  0  0  0  0  0  0  0
    0.0000    0.8250    0.0000 N   0  0  0  0  0  0  0  0  0  0  0  0
   -0.7145   -0.4125    0.0000 N   0  0  0  0  0  0  0  0  0  0  0  0
    2.1434   -0.4125    0.0000 N   0  0  0  0  0  0  0  0  0  0  0  0
    0.7145    2.0625    0.0000 N   0  0  0  0  0  0  0  0  0  0  0  0
  1  2  2  0  0  0  0
  2  3  1  0  0  0  0
  3  4  2  0  0  0  0
  4  5  1  0  0  0  0
  5  6  2  0  0  0  0
  1  6  1  0  0  0  0
  5  7  1  0  0  0  0
  3  8  1  0  0  0  0
  1  9  1  0  0  0  0
M  END
> <Molar mass [g/mol] [MProp:scalar:double]>
126.123

> <Exact mass [Da] [MProp:scalar:double]>
126.065394217

> <Formula>
C3H6N6

> <Composition>
C (28.57%), H (4.80%), N (66.63%)

> <Lipinski's rule of five [MProp:scalar:boolean]>
true

> <Atom count [MProp:scalar:integer]>
15

> <Heavy atom count [MProp:scalar:integer]>
9

> <Asymmetric atom count [MProp:scalar:integer]>
0

> <Rotatable bond count [MProp:scalar:integer]>
0

> <Ring count [MProp:scalar:integer]>
1

> <Aromatic ring count [MProp:scalar:integer]>
1

> <Hetero ring count [MProp:scalar:integer]>
1

> <FSP3 [MProp:scalar:double]>
0.0

> <Hydrogen bond donor count [MProp:scalar:integer]>
3

> <Hydrogen bond acceptor count [MProp:scalar:integer]>
6

> <Formal charge [MProp:scalar:integer]>
0

> <Topological polar surface area [A^2] [MProp:scalar:double]>
116.73

> <Polarizability [A^3] [MProp:scalar:double]>
11.18

> <Molar refractivity [cm^3/mol] [MProp:scalar:double]>
36.46

> <Van der Waals volume [A^3] [MProp:scalar:double]>
102.24

> <Minimum projection area [A^2] [MProp:scalar:double]>
23.0

> <Maximum projection area [A^2] [MProp:scalar:double]>
43.64

> <Minimum projection radius [A] [MProp:scalar:double]>
4.0

> <Maximum projection radius [A] [MProp:scalar:double]>
4.38

> <Van der Waals surface area [A^2] [MProp:scalar:double]>
158.72

> <Solvent accessible surface area [A^2] [MProp:scalar:double]>
265.65

> <Strongest acidic pKa>
N/A

> <Strongest basic pKa [MProp:scalar:double]>
9.56

> <Isoelectric point [MProp:scalar:double]>
12.62

> <Intrinsic solubility [logS] [MProp:scalar:double]>
-1.69

> <Solubility category>
High

> <logP [MProp:scalar:double]>
-0.59

> <logD_PH0 [MProp:scalar:double]>
-4.09

> <logD_PH1 [MProp:scalar:double]>
-3.94

> <logD_PH2 [MProp:scalar:double]>
-3.38

> <logD_PH3 [MProp:scalar:double]>
-2.77

> <logD_PH4 [MProp:scalar:double]>
-2.58

> <logD_PH5 [MProp:scalar:double]>
-2.56

> <logD_PH6 [MProp:scalar:double]>
-2.54

> <logD_PH7 [MProp:scalar:double]>
-2.46

> <logD_PH8 [MProp:scalar:double]>
-2.02

> <logD_PH9 [MProp:scalar:double]>
-1.24

> <logD_PH10 [MProp:scalar:double]>
-0.73

> <logD_PH11 [MProp:scalar:double]>
-0.61

> <logD_PH12 [MProp:scalar:double]>
-0.6

> <logD_PH13 [MProp:scalar:double]>
-0.6

> <logD_PH14 [MProp:scalar:double]>
-0.6

> <HLB [MProp:scalar:double]>
11.7

> <IUPAC name>
1,3,5-triazine-2,4,6-triamine

> <SMILES>
NC1=NC(N)=NC(N)=N1

> <InChI>
InChI=1S/C3H6N6/c4-1-7-2(5)9-3(6)8-1/h(H6,4,5,6,7,8,9)

> <InChIKey>
JDSHMPZPIAZGSV-UHFFFAOYSA-N

> <Traditional name>
melamine

> <Common names>
Aero; adk stab ZS 27; ccris 373; cyanuramide; cyanuric triamide; hicophor PR; isomelamine; mark ZS 27; melamine bis(oxymethyl)phosphonic acid salt; melaminium citrate; pluragard; pluragard C 133; s-triazinetriamine; spinflam ML 94M; sym-triaminotriazine; teoharn; theoharn; yukamelamine

> <CAS Registry Numbers(R)>
108-78-1, 5432-64-4

$$$$
Metaflumizone
  Mrv2222 01232613222D          

 36 38  0  0  0  0            999 V2000
   -0.7145   -1.2375    0.0000 C   0  0  0  0  0  0  0  0  0  0  0  0
   -1.4289   -1.6500    0.0000 C   0  0  0  0  0  0  0  0  0  0  0  0
   -2.1434   -1.2375    0.0000 C   0  0  0  0  0  0  0  0  0  0  0  0
   -2.1434   -0.4125    0.0000 C   0  0  0  0  0  0  0  0  0  0  0  0
   -1.4289    0.0000    0.0000 C   0  0  0  0  0  0  0  0  0  0  0  0
   -0.7145   -0.4125    0.0000 C   0  0  0  0  0  0  0  0  0  0  0  0
   -1.4289    0.8250    0.0000 C   0  0  0  0  0  0  0  0  0  0  0  0
   -1.4289    1.6500    0.0000 F   0  0  0  0  0  0  0  0  0  0  0  0
   -0.6039    0.8250    0.0000 F   0  0  0  0  0  0  0  0  0  0  0  0
   -2.2539    0.8250    0.0000 F   0  0  0  0  0  0  0  0  0  0  0  0
   -2.8579   -1.6500    0.0000 C   0  0  0  0  0  0  0  0  0  0  0  0
   -3.5724   -1.2375    0.0000 N   0  0  0  0  0  0  0  0  0  0  0  0
   -4.2868   -1.6500    0.0000 N   0  0  0  0  0  0  0  0  0  0  0  0
   -5.0013   -1.2375    0.0000 C   0  0  0  0  0  0  0  0  0  0  0  0
   -5.0013   -0.4125    0.0000 O   0  0  0  0  0  0  0  0  0  0  0  0
   -5.7158   -1.6500    0.0000 N   0  0  0  0  0  0  0  0  0  0  0  0
   -6.4302   -1.2375    0.0000 C   0  0  0  0  0  0  0  0  0  0  0  0
   -7.1447   -1.6500    0.0000 C   0  0  0  0  0  0  0  0  0  0  0  0
   -7.8592   -1.2375    0.0000 C   0  0  0  0  0  0  0  0  0  0  0  0
   -7.8592   -0.4125    0.0000 C   0  0  0  0  0  0  0  0  0  0  0  0
   -7.1447    0.0000    0.0000 C   0  0  0  0  0  0  0  0  0  0  0  0
   -6.4302   -0.4125    0.0000 C   0  0  0  0  0  0  0  0  0  0  0  0
   -8.5737    0.0000    0.0000 O   0  0  0  0  0  0  0  0  0  0  0  0
   -8.5737    0.8250    0.0000 C   0  0  0  0  0  0  0  0  0  0  0  0
   -8.5737    1.6500    0.0000 F   0  0  0  0  0  0  0  0  0  0  0  0
   -9.3987    0.8250    0.0000 F   0  0  0  0  0  0  0  0  0  0  0  0
   -7.7487    0.8250    0.0000 F   0  0  0  0  0  0  0  0  0  0  0  0
   -2.8579   -2.4750    0.0000 C   0  0  0  0  0  0  0  0  0  0  0  0
   -2.1434   -2.8875    0.0000 C   0  0  0  0  0  0  0  0  0  0  0  0
   -1.4289   -2.4750    0.0000 C   0  0  0  0  0  0  0  0  0  0  0  0
   -0.7145   -2.8875    0.0000 C   0  0  0  0  0  0  0  0  0  0  0  0
   -0.7145   -3.7125    0.0000 C   0  0  0  0  0  0  0  0  0  0  0  0
   -1.4289   -4.1250    0.0000 C   0  0  0  0  0  0  0  0  0  0  0  0
   -2.1434   -3.7125    0.0000 C   0  0  0  0  0  0  0  0  0  0  0  0
    0.0000   -4.1250    0.0000 C   0  0  0  0  0  0  0  0  0  0  0  0
    0.7145   -4.5375    0.0000 N   0  0  0  0  0  0  0  0  0  0  0  0
  1  2  2  0  0  0  0
  2  3  1  0  0  0  0
  3  4  2  0  0  0  0
  4  5  1  0  0  0  0
  5  6  2  0  0  0  0
  1  6  1  0  0  0  0
  5  7  1  0  0  0  0
  7  8  1  0  0  0  0
  7  9  1  0  0  0  0
  7 10  1  0  0  0  0
  3 11  1  0  0  0  0
 11 12  2  0  0  0  0
 12 13  1  0  0  0  0
 13 14  1  0  0  0  0
 14 15  2  0  0  0  0
 14 16  1  0  0  0  0
 16 17  1  0  0  0  0
 17 18  2  0  0  0  0
 18 19  1  0  0  0  0
 19 20  2  0  0  0  0
 20 21  1  0  0  0  0
 21 22  2  0  0  0  0
 17 22  1  0  0  0  0
 20 23  1  0  0  0  0
 23 24  1  0  0  0  0
 24 25  1  0  0  0  0
 24 26  1  0  0  0  0
 24 27  1  0  0  0  0
 11 28  1  0  0  0  0
 28 29  1  0  0  0  0
 29 30  2  0  0  0  0
 30 31  1  0  0  0  0
 31 32  2  0  0  0  0
 32 33  1  0  0  0  0
 33 34  2  0  0  0  0
 29 34  1  0  0  0  0
 32 35  1  0  0  0  0
 35 36  3  0  0  0  0
M  END
> <Molar mass [g/mol] [MProp:scalar:double]>
506.408

> <Exact mass [Da] [MProp:scalar:double]>
506.117744749

> <Formula>
C24H16F6N4O2

> <Composition>
C (56.92%), H (3.18%), F (22.51%), N (11.06%), O (6.32%)

> <Lipinski's rule of five [MProp:scalar:boolean]>
false

> <Atom count [MProp:scalar:integer]>
52

> <Heavy atom count [MProp:scalar:integer]>
36

> <Asymmetric atom count [MProp:scalar:integer]>
0

> <Rotatable bond count [MProp:scalar:integer]>
8

> <Ring count [MProp:scalar:integer]>
3

> <Aromatic ring count [MProp:scalar:integer]>
3

> <Hetero ring count [MProp:scalar:integer]>
0

> <FSP3 [MProp:scalar:double]>
0.12

> <Hydrogen bond donor count [MProp:scalar:integer]>
2

> <Hydrogen bond acceptor count [MProp:scalar:integer]>
4

> <Formal charge [MProp:scalar:integer]>
0

> <Topological polar surface area [A^2] [MProp:scalar:double]>
86.51

> <Polarizability [A^3] [MProp:scalar:double]>
42.93

> <Molar refractivity [cm^3/mol] [MProp:scalar:double]>
116.0

> <Van der Waals volume [A^3] [MProp:scalar:double]>
393.76

> <Minimum projection area [A^2] [MProp:scalar:double]>
70.37

> <Maximum projection area [A^2] [MProp:scalar:double]>
128.32

> <Minimum projection radius [A] [MProp:scalar:double]>
7.33

> <Maximum projection radius [A] [MProp:scalar:double]>
9.02

> <Van der Waals surface area [A^2] [MProp:scalar:double]>
607.46

> <Solvent accessible surface area [A^2] [MProp:scalar:double]>
666.4

> <Strongest acidic pKa [MProp:scalar:double]>
11.17

> <Strongest basic pKa [MProp:scalar:double]>
-1.58

> <Isoelectric point [MProp:scalar:double]>
4.8

> <Intrinsic solubility [logS] [MProp:scalar:double]>
-7.54

> <Solubility category>
Low

> <logP [MProp:scalar:double]>
6.86

> <logD_PH0 [MProp:scalar:double]>
6.85

> <logD_PH1 [MProp:scalar:double]>
6.86

> <logD_PH2 [MProp:scalar:double]>
6.86

> <logD_PH3 [MProp:scalar:double]>
6.86

> <logD_PH4 [MProp:scalar:double]>
6.86

> <logD_PH5 [MProp:scalar:double]>
6.86

> <logD_PH6 [MProp:scalar:double]>
6.86

> <logD_PH7 [MProp:scalar:double]>
6.86

> <logD_PH8 [MProp:scalar:double]>
6.86

> <logD_PH9 [MProp:scalar:double]>
6.86

> <logD_PH10 [MProp:scalar:double]>
6.84

> <logD_PH11 [MProp:scalar:double]>
6.67

> <logD_PH12 [MProp:scalar:double]>
6.22

> <logD_PH13 [MProp:scalar:double]>
5.96

> <logD_PH14 [MProp:scalar:double]>
5.91

> <HLB [MProp:scalar:double]>
10.27

> <IUPAC name>
1-[(E)-[2-(4-cyanophenyl)-1-[3-(trifluoromethyl)phenyl]ethylidene]amino]-3-[4-(trifluoromethoxy)phenyl]urea

> <SMILES>
FC(F)(F)OC1=CC=C(NC(=O)N\N=C(/CC2=CC=C(C=C2)C#N)C2=CC(=CC=C2)C(F)(F)F)C=C1

> <InChI>
InChI=1S/C24H16F6N4O2/c25-23(26,27)18-3-1-2-17(13-18)21(12-15-4-6-16(14-31)7-5-15)33-34-22(35)32-19-8-10-20(11-9-19)36-24(28,29)30/h1-11,13H,12H2,(H2,32,34,35)/b33-21+

> <InChIKey>
MIFOMMKAVSCNKQ-QNKGDIEWSA-N

> <Traditional name>
metaflumizone

> <Common names>
N/A

> <CAS Registry Numbers(R)>
139968-49-3, 852403-68-0

$$$$
Metazachlor
  Mrv2222 01232613222D          

 19 20  0  0  0  0            999 V2000
   -2.1434    0.4125    0.0000 C    0  0  0  0  0  0  0  0  0  0  0  0
   -2.1434   -0.4125    0.0000 C    0  0  0  0  0  0  0  0  0  0  0  0
   -1.4289   -0.8250    0.0000 C    0  0  0  0  0  0  0  0  0  0  0  0
   -1.4289   -1.6500    0.0000 C    0  0  0  0  0  0  0  0  0  0  0  0
   -2.1434   -2.0625    0.0000 C    0  0  0  0  0  0  0  0  0  0  0  0
   -2.8579   -1.6500    0.0000 C    0  0  0  0  0  0  0  0  0  0  0  0
   -2.8579   -0.8250    0.0000 C    0  0  0  0  0  0  0  0  0  0  0  0
   -0.7145   -2.0625    0.0000 C    0  0  0  0  0  0  0  0  0  0  0  0
   -0.7145   -0.4125    0.0000 N    0  0  0  0  0  0  0  0  0  0  0  0
   -0.7145    0.4125    0.0000 C    0  0  0  0  0  0  0  0  0  0  0  0
    0.0000    0.8250    0.0000 N    0  0  0  0  0  0  0  0  0  0  0  0
    0.0862    1.6455    0.0000 C    0  0  0  0  0  0  0  0  0  0  0  0
    0.8932    1.8170    0.0000 C    0  0  0  0  0  0  0  0  0  0  0  0
    1.3057    1.1025    0.0000 C    0  0  0  0  0  0  0  0  0  0  0  0
    0.7537    0.4894    0.0000 N    0  0  0  0  0  0  0  0  0  0  0  0
    0.0000   -0.8250    0.0000 C    0  0  0  0  0  0  0  0  0  0  0  0
    0.0000   -1.6500    0.0000 O    0  0  0  0  0  0  0  0  0  0  0  0
    0.7145   -0.4125    0.0000 C    0  0  0  0  0  0  0  0  0  0  0  0
    1.4289   -0.8250    0.0000 Cl   0  0  0  0  0  0  0  0  0  0  0  0
  1  2  1  0  0  0  0
  2  3  2  0  0  0  0
  3  4  1  0  0  0  0
  4  5  2  0  0  0  0
  5  6  1  0  0  0  0
  6  7  2  0  0  0  0
  2  7  1  0  0  0  0
  4  8  1  0  0  0  0
  3  9  1  0  0  0  0
  9 10  1  0  0  0  0
 10 11  1  0  0  0  0
 11 12  1  0  0  0  0
 12 13  2  0  0  0  0
 13 14  1  0  0  0  0
 14 15  2  0  0  0  0
 11 15  1  0  0  0  0
  9 16  1  0  0  0  0
 16 17  2  0  0  0  0
 16 18  1  0  0  0  0
 18 19  1  0  0  0  0
M  END
> <Molar mass [g/mol] [MProp:scalar:double]>
277.75

> <Exact mass [Da] [MProp:scalar:double]>
277.0981898

> <Formula>
C14H16ClN3O

> <Composition>
C (60.54%), H (5.81%), Cl (12.76%), N (15.13%), O (5.76%)

> <Lipinski's rule of five [MProp:scalar:boolean]>
true

> <Atom count [MProp:scalar:integer]>
35

> <Heavy atom count [MProp:scalar:integer]>
19

> <Asymmetric atom count [MProp:scalar:integer]>
0

> <Rotatable bond count [MProp:scalar:integer]>
4

> <Ring count [MProp:scalar:integer]>
2

> <Aromatic ring count [MProp:scalar:integer]>
2

> <Hetero ring count [MProp:scalar:integer]>
1

> <FSP3 [MProp:scalar:double]>
0.29

> <Hydrogen bond donor count [MProp:scalar:integer]>
0

> <Hydrogen bond acceptor count [MProp:scalar:integer]>
2

> <Formal charge [MProp:scalar:integer]>
0

> <Topological polar surface area [A^2] [MProp:scalar:double]>
38.13

> <Polarizability [A^3] [MProp:scalar:double]>
28.81

> <Molar refractivity [cm^3/mol] [MProp:scalar:double]>
86.67

> <Van der Waals volume [A^3] [MProp:scalar:double]>
245.93

> <Minimum projection area [A^2] [MProp:scalar:double]>
50.91

> <Maximum projection area [A^2] [MProp:scalar:double]>
71.94

> <Minimum projection radius [A] [MProp:scalar:double]>
5.39

> <Maximum projection radius [A] [MProp:scalar:double]>
5.6

> <Van der Waals surface area [A^2] [MProp:scalar:double]>
402.69

> <Solvent accessible surface area [A^2] [MProp:scalar:double]>
438.36

> <Strongest acidic pKa>
N/A

> <Strongest basic pKa [MProp:scalar:double]>
2.34

> <Isoelectric point>
N/A

> <Intrinsic solubility [logS] [MProp:scalar:double]>
-3.04

> <Solubility category>
High

> <logP [MProp:scalar:double]>
2.98

> <logD_PH0 [MProp:scalar:double]>
0.72

> <logD_PH1 [MProp:scalar:double]>
1.63

> <logD_PH2 [MProp:scalar:double]>
2.47

> <logD_PH3 [MProp:scalar:double]>
2.89

> <logD_PH4 [MProp:scalar:double]>
2.97

> <logD_PH5 [MProp:scalar:double]>
2.98

> <logD_PH6 [MProp:scalar:double]>
2.98

> <logD_PH7 [MProp:scalar:double]>
2.98

> <logD_PH8 [MProp:scalar:double]>
2.98

> <logD_PH9 [MProp:scalar:double]>
2.98

> <logD_PH10 [MProp:scalar:double]>
2.98

> <logD_PH11 [MProp:scalar:double]>
2.98

> <logD_PH12 [MProp:scalar:double]>
2.98

> <logD_PH13 [MProp:scalar:double]>
2.98

> <logD_PH14 [MProp:scalar:double]>
2.98

> <HLB [MProp:scalar:double]>
11.11

> <IUPAC name>
2-chloro-N-(2,6-dimethylphenyl)-N-[(1H-pyrazol-1-yl)methyl]acetamide

> <SMILES>
CC1=CC=CC(C)=C1N(CN1C=CC=N1)C(=O)CCl

> <InChI>
InChI=1S/C14H16ClN3O/c1-11-5-3-6-12(2)14(11)18(13(19)9-15)10-17-8-4-7-16-17/h3-8H,9-10H2,1-2H3

> <InChIKey>
STEPQTYSZVCJPV-UHFFFAOYSA-N

> <Traditional name>
metazachlor

> <Common names>
C14H16clN3O; butisan S; metazachlor; metazachlore

> <CAS Registry Numbers(R)>
67129-08-2

$$$$
MetazachlorESA
  Mrv2222 01232613222D          

 22 23  0  0  0  0            999 V2000
   -1.3222    0.7634    0.0000 C   0  0  0  0  0  0  0  0  0  0  0  0
   -2.0367    1.1759    0.0000 C   0  0  0  0  0  0  0  0  0  0  0  0
   -2.7512    0.7634    0.0000 C   0  0  0  0  0  0  0  0  0  0  0  0
   -3.4656    1.1759    0.0000 C   0  0  0  0  0  0  0  0  0  0  0  0
   -3.4656    2.0009    0.0000 C   0  0  0  0  0  0  0  0  0  0  0  0
   -2.7512    2.4134    0.0000 C   0  0  0  0  0  0  0  0  0  0  0  0
   -2.0367    2.0009    0.0000 C   0  0  0  0  0  0  0  0  0  0  0  0
   -4.1801    0.7634    0.0000 C   0  0  0  0  0  0  0  0  0  0  0  0
   -2.7512   -0.0616    0.0000 N   0  0  0  0  0  0  0  0  0  0  0  0
   -2.0367   -0.4741    0.0000 C   0  0  0  0  0  0  0  0  0  0  0  0
   -2.0367   -1.2991    0.0000 N   0  0  0  0  0  0  0  0  0  0  0  0
   -1.3693   -1.7840    0.0000 C   0  0  0  0  0  0  0  0  0  0  0  0
   -1.6242   -2.5687    0.0000 C   0  0  0  0  0  0  0  0  0  0  0  0
   -2.4492   -2.5687    0.0000 C   0  0  0  0  0  0  0  0  0  0  0  0
   -2.7041   -1.7840    0.0000 N   0  0  0  0  0  0  0  0  0  0  0  0
   -3.4656   -0.4741    0.0000 C   0  0  0  0  0  0  0  0  0  0  0  0
   -3.4656   -1.2991    0.0000 O   0  0  0  0  0  0  0  0  0  0  0  0
   -4.1801   -0.0616    0.0000 C   0  0  0  0  0  0  0  0  0  0  0  0
   -4.8946   -0.4741    0.0000 S   0  0  0  0  0  0  0  0  0  0  0  0
   -5.3071    0.2404    0.0000 O   0  0  0  0  0  0  0  0  0  0  0  0
   -4.4821   -1.1886    0.0000 O   0  0  0  0  0  0  0  0  0  0  0  0
   -5.6091   -0.8866    0.0000 O   0  0  0  0  0  0  0  0  0  0  0  0
  1  2  1  0  0  0  0
  2  3  2  0  0  0  0
  3  4  1  0  0  0  0
  4  5  2  0  0  0  0
  5  6  1  0  0  0  0
  6  7  2  0  0  0  0
  2  7  1  0  0  0  0
  4  8  1  0  0  0  0
  3  9  1  0  0  0  0
  9 10  1  0  0  0  0
 10 11  1  0  0  0  0
 11 12  1  0  0  0  0
 12 13  2  0  0  0  0
 13 14  1  0  0  0  0
 14 15  2  0  0  0  0
 11 15  1  0  0  0  0
  9 16  1  0  0  0  0
 16 17  2  0  0  0  0
 16 18  1  0  0  0  0
 18 19  1  0  0  0  0
 19 20  2  0  0  0  0
 19 21  2  0  0  0  0
 19 22  1  0  0  0  0
M  END
> <Molar mass [g/mol] [MProp:scalar:double]>
323.37

> <Exact mass [Da] [MProp:scalar:double]>
323.093977213

> <Formula>
C14H17N3O4S

> <Composition>
C (52.00%), H (5.30%), N (12.99%), O (19.79%), S (9.91%)

> <Lipinski's rule of five [MProp:scalar:boolean]>
true

> <Atom count [MProp:scalar:integer]>
39

> <Heavy atom count [MProp:scalar:integer]>
22

> <Asymmetric atom count [MProp:scalar:integer]>
0

> <Rotatable bond count [MProp:scalar:integer]>
5

> <Ring count [MProp:scalar:integer]>
2

> <Aromatic ring count [MProp:scalar:integer]>
2

> <Hetero ring count [MProp:scalar:integer]>
1

> <FSP3 [MProp:scalar:double]>
0.29

> <Hydrogen bond donor count [MProp:scalar:integer]>
1

> <Hydrogen bond acceptor count [MProp:scalar:integer]>
5

> <Formal charge [MProp:scalar:integer]>
0

> <Topological polar surface area [A^2] [MProp:scalar:double]>
92.5

> <Polarizability [A^3] [MProp:scalar:double]>
31.68

> <Molar refractivity [cm^3/mol] [MProp:scalar:double]>
92.26

> <Van der Waals volume [A^3] [MProp:scalar:double]>
276.41

> <Minimum projection area [A^2] [MProp:scalar:double]>
53.11

> <Maximum projection area [A^2] [MProp:scalar:double]>
76.23

> <Minimum projection radius [A] [MProp:scalar:double]>
4.79

> <Maximum projection radius [A] [MProp:scalar:double]>
6.37

> <Van der Waals surface area [A^2] [MProp:scalar:double]>
461.63

> <Solvent accessible surface area [A^2] [MProp:scalar:double]>
527.51

> <Strongest acidic pKa [MProp:scalar:double]>
-0.98

> <Strongest basic pKa [MProp:scalar:double]>
2.34

> <Isoelectric point [MProp:scalar:double]>
0.68

> <Intrinsic solubility [logS] [MProp:scalar:double]>
-2.02

> <Solubility category>
High

> <logP [MProp:scalar:double]>
0.37

> <logD_PH0 [MProp:scalar:double]>
0.35

> <logD_PH1 [MProp:scalar:double]>
0.37

> <logD_PH2 [MProp:scalar:double]>
0.25

> <logD_PH3 [MProp:scalar:double]>
-0.22

> <logD_PH4 [MProp:scalar:double]>
-0.63

> <logD_PH5 [MProp:scalar:double]>
-0.73

> <logD_PH6 [MProp:scalar:double]>
-0.74

> <logD_PH7 [MProp:scalar:double]>
-0.74

> <logD_PH8 [MProp:scalar:double]>
-0.74

> <logD_PH9 [MProp:scalar:double]>
-0.74

> <logD_PH10 [MProp:scalar:double]>
-0.74

> <logD_PH11 [MProp:scalar:double]>
-0.74

> <logD_PH12 [MProp:scalar:double]>
-0.75

> <logD_PH13 [MProp:scalar:double]>
-0.83

> <logD_PH14 [MProp:scalar:double]>
-1.26

> <HLB [MProp:scalar:double]>
13.82

> <IUPAC name>
[(2,6-dimethylphenyl)[(1H-pyrazol-1-yl)methyl]carbamoyl]methanesulfonic acid

> <SMILES>
CC1=CC=CC(C)=C1N(CN1C=CC=N1)C(=O)CS(O)(=O)=O

> <InChI>
InChI=1S/C14H17N3O4S/c1-11-5-3-6-12(2)14(11)17(10-16-8-4-7-15-16)13(18)9-22(19,20)21/h3-8H,9-10H2,1-2H3,(H,19,20,21)

> <InChIKey>
IPVCSECPEVHQOV-UHFFFAOYSA-N

> <Traditional name>
metazachlor esa

> <Common names>
metazachlor esa

> <CAS Registry Numbers(R)>
172960-62-2

$$$$
Metformin
  Mrv2222 01232613222D          

  9  8  0  0  0  0            999 V2000
   -0.1914    0.7145    0.0000 C   0  0  0  0  0  0  0  0  0  0  0  0
    0.5230    1.1270    0.0000 N   0  0  0  0  0  0  0  0  0  0  0  0
    0.5230    1.9520    0.0000 C   0  0  0  0  0  0  0  0  0  0  0  0
    1.2375    0.7145    0.0000 C   0  0  0  0  0  0  0  0  0  0  0  0
    1.2375   -0.1105    0.0000 N   0  0  0  0  0  0  0  0  0  0  0  0
    1.9520    1.1270    0.0000 N   0  0  0  0  0  0  0  0  0  0  0  0
    2.6664    0.7145    0.0000 C   0  0  0  0  0  0  0  0  0  0  0  0
    3.3809    1.1270    0.0000 N   0  0  0  0  0  0  0  0  0  0  0  0
    2.6664   -0.1105    0.0000 N   0  0  0  0  0  0  0  0  0  0  0  0
  1  2  1  0  0  0  0
  2  3  1  0  0  0  0
  2  4  1  0  0  0  0
  4  5  2  0  0  0  0
  4  6  1  0  0  0  0
  6  7  1  0  0  0  0
  7  8  2  0  0  0  0
  7  9  1  0  0  0  0
M  END
> <Molar mass [g/mol] [MProp:scalar:double]>
129.167

> <Exact mass [Da] [MProp:scalar:double]>
129.101445374

> <Formula>
C4H11N5

> <Composition>
C (37.20%), H (8.58%), N (54.22%)

> <Lipinski's rule of five [MProp:scalar:boolean]>
true

> <Atom count [MProp:scalar:integer]>
20

> <Heavy atom count [MProp:scalar:integer]>
9

> <Asymmetric atom count [MProp:scalar:integer]>
0

> <Rotatable bond count [MProp:scalar:integer]>
0

> <Ring count [MProp:scalar:integer]>
0

> <Aromatic ring count [MProp:scalar:integer]>
0

> <Hetero ring count [MProp:scalar:integer]>
0

> <FSP3 [MProp:scalar:double]>
0.5

> <Hydrogen bond donor count [MProp:scalar:integer]>
4

> <Hydrogen bond acceptor count [MProp:scalar:integer]>
5

> <Formal charge [MProp:scalar:integer]>
0

> <Topological polar surface area [A^2] [MProp:scalar:double]>
88.99

> <Polarizability [A^3] [MProp:scalar:double]>
13.0

> <Molar refractivity [cm^3/mol] [MProp:scalar:double]>
56.64

> <Van der Waals volume [A^3] [MProp:scalar:double]>
123.64

> <Minimum projection area [A^2] [MProp:scalar:double]>
23.76

> <Maximum projection area [A^2] [MProp:scalar:double]>
45.21

> <Minimum projection radius [A] [MProp:scalar:double]>
3.42

> <Maximum projection radius [A] [MProp:scalar:double]>
4.92

> <Van der Waals surface area [A^2] [MProp:scalar:double]>
205.98

> <Solvent accessible surface area [A^2] [MProp:scalar:double]>
278.34

> <Strongest acidic pKa>
N/A

> <Strongest basic pKa [MProp:scalar:double]>
12.33

> <Isoelectric point [MProp:scalar:double]>
13.84

> <Intrinsic solubility [logS] [MProp:scalar:double]>
-0.19

> <Solubility category>
High

> <logP [MProp:scalar:double]>
-0.92

> <logD_PH0 [MProp:scalar:double]>
-5.75

> <logD_PH1 [MProp:scalar:double]>
-5.75

> <logD_PH2 [MProp:scalar:double]>
-5.75

> <logD_PH3 [MProp:scalar:double]>
-5.75

> <logD_PH4 [MProp:scalar:double]>
-5.75

> <logD_PH5 [MProp:scalar:double]>
-5.75

> <logD_PH6 [MProp:scalar:double]>
-5.74

> <logD_PH7 [MProp:scalar:double]>
-5.69

> <logD_PH8 [MProp:scalar:double]>
-5.37

> <logD_PH9 [MProp:scalar:double]>
-4.55

> <logD_PH10 [MProp:scalar:double]>
-3.44

> <logD_PH11 [MProp:scalar:double]>
-2.3

> <logD_PH12 [MProp:scalar:double]>
-1.41

> <logD_PH13 [MProp:scalar:double]>
-1.0

> <logD_PH14 [MProp:scalar:double]>
-0.93

> <HLB [MProp:scalar:double]>
22.91

> <IUPAC name>
1-carbamimidamido-N,N-dimethylmethanimidamide

> <SMILES>
CN(C)C(=N)NC(N)=N

> <InChI>
InChI=1S/C4H11N5/c1-9(2)4(7)8-3(5)6/h1-2H3,(H5,5,6,7,8)

> <InChIKey>
XZWYZXLIPXDOLR-UHFFFAOYSA-N

> <Traditional name>
metformin

> <Common names>
C4H12ClN5; DMGG; N,N-dimethyldiguanide; NNDG; apo-metformin; benofomin; biocos; dabex; denkaform; dextin; diabefagos; diaberit; diabesin; diabetex; diabetmin; diabetosan; diabex; diaformin; diamin; diaphage; diformin; diformin retard; dimethylbiguanidine; dimethyldiguanide; dimethylguanylguanidine; fluamine; flumamine; fornidd; fortamet; geamet; gen-metformin; glibomet; glifage; gliguanid; glucofago; glucoform; glucoliz; glucomet; glucomine; gluconil; glucophage; glucophage 850; glucophage XR; glucophage forte; glucophage retard; glucophage-mite; gluformin; glumetza; glupermin; glyciphage; glycon; glycoran; glyformin; haurymelin; islotin; islotin retard; meglucon; meguan; melbin; mescorit; metbay; metforal; metformin; metformin (product); metformin (substance); metformin preparation; metformina; metformine; metforminum; metiguanide; metolmin; metomin; mylan-metformin; novo-metformin; nu-metformin; pms-metformin; ran-metformin; ratio-metformin; riomet; risidon; sandoz metformin; siamformet; siofor; teva-metformin; thiabet; walaphage; 二甲双胍

> <CAS Registry Numbers(R)>
657-24-9

$$$$
Methylamine
  Mrv2222 01232613222D          

  2  1  0  0  0  0            999 V2000
     0.825     0.000     0.000 C   0  0  0  0  0  0  0  0  0  0  0  0
     0.000     0.000     0.000 N   0  0  0  0  0  0  0  0  0  0  0  0
  1  2  1  0  0  0  0
M  END
> <Molar mass [g/mol] [MProp:scalar:double]>
31.058

> <Exact mass [Da] [MProp:scalar:double]>
31.042199165

> <Formula>
CH5N

> <Composition>
C (38.67%), H (16.23%), N (45.10%)

> <Lipinski's rule of five [MProp:scalar:boolean]>
true

> <Atom count [MProp:scalar:integer]>
7

> <Heavy atom count [MProp:scalar:integer]>
2

> <Asymmetric atom count [MProp:scalar:integer]>
0

> <Rotatable bond count [MProp:scalar:integer]>
0

> <Ring count [MProp:scalar:integer]>
0

> <Aromatic ring count [MProp:scalar:integer]>
0

> <Hetero ring count [MProp:scalar:integer]>
0

> <FSP3 [MProp:scalar:double]>
1.0

> <Hydrogen bond donor count [MProp:scalar:integer]>
1

> <Hydrogen bond acceptor count [MProp:scalar:integer]>
1

> <Formal charge [MProp:scalar:integer]>
0

> <Topological polar surface area [A^2] [MProp:scalar:double]>
26.02

> <Polarizability [A^3] [MProp:scalar:double]>
4.11

> <Molar refractivity [cm^3/mol] [MProp:scalar:double]>
9.92

> <Van der Waals volume [A^3] [MProp:scalar:double]>
40.16

> <Minimum projection area [A^2] [MProp:scalar:double]>
12.16

> <Maximum projection area [A^2] [MProp:scalar:double]>
16.93

> <Minimum projection radius [A] [MProp:scalar:double]>
2.25

> <Maximum projection radius [A] [MProp:scalar:double]>
2.66

> <Van der Waals surface area [A^2] [MProp:scalar:double]>
76.0

> <Solvent accessible surface area [A^2] [MProp:scalar:double]>
194.05

> <Strongest acidic pKa>
N/A

> <Strongest basic pKa [MProp:scalar:double]>
10.08

> <Isoelectric point>
N/A

> <Intrinsic solubility [logS] [MProp:scalar:double]>
1.02

> <Solubility category>
High

> <logP [MProp:scalar:double]>
-0.63

> <logD_PH0 [MProp:scalar:double]>
-3.66

> <logD_PH1 [MProp:scalar:double]>
-3.66

> <logD_PH2 [MProp:scalar:double]>
-3.66

> <logD_PH3 [MProp:scalar:double]>
-3.66

> <logD_PH4 [MProp:scalar:double]>
-3.66

> <logD_PH5 [MProp:scalar:double]>
-3.65

> <logD_PH6 [MProp:scalar:double]>
-3.62

> <logD_PH7 [MProp:scalar:double]>
-3.38

> <logD_PH8 [MProp:scalar:double]>
-2.66

> <logD_PH9 [MProp:scalar:double]>
-1.74

> <logD_PH10 [MProp:scalar:double]>
-0.97

> <logD_PH11 [MProp:scalar:double]>
-0.67

> <logD_PH12 [MProp:scalar:double]>
-0.63

> <logD_PH13 [MProp:scalar:double]>
-0.63

> <logD_PH14 [MProp:scalar:double]>
-0.63

> <HLB [MProp:scalar:double]>
17.55

> <IUPAC name>
methanamine

> <SMILES>
CN

> <InChI>
InChI=1S/CH5N/c1-2/h2H2,1H3

> <InChIKey>
BAVYZALUXZFZLV-UHFFFAOYSA-N

> <Traditional name>
methylamine

> <Common names>
13C-labeled methylamine; 13c-labeled methylamine; 14C-labeled methylamine; 14c-labeled methylamine; 15N-labeled methylamine; 15n-labeled methylamine; MeNH2; NMA; NME; anhydrous methylamine; cesium salt methylamine; mercurialin; methylamine (substance); methylamine anhydrous; methylamine aqueous solution; methylamine bisulfite; methylamine hydrogen cyanide; methylamine ion (1-); methylamine solution; methylamine solutions; methylamine, 13C-labeled; methylamine, 13c-labeled; methylamine, 14C-labeled; methylamine, 14c-labeled; methylamine, 15N-labeled; methylamine, 15n-labeled; methylamine, cesium salt; methylamine, in aqueous solution; methylaminen; metilamine; metyloamina; monopotassium salt methylamine; monosodium salt methylamine

> <CAS Registry Numbers(R)>
74-89-5, 3767-37-1

$$$$
Methylchlorophenoxypropionicacid
  Mrv2222 01232613222D          

 14 14  0  0  0  0            999 V2000
    1.2375    3.1895    0.0000 C    0  0  0  0  0  0  0  0  0  0  0  0
    0.4125    3.1895    0.0000 C    0  0  0  0  0  0  0  0  0  0  0  0
    0.0000    2.4750    0.0000 C    0  0  0  0  0  0  0  0  0  0  0  0
   -0.7145    2.8875    0.0000 C    0  0  0  0  0  0  0  0  0  0  0  0
   -0.7145    3.7125    0.0000 O    0  0  0  0  0  0  0  0  0  0  0  0
   -1.4289    2.4750    0.0000 O    0  0  0  0  0  0  0  0  0  0  0  0
    0.7145    2.0625    0.0000 O    0  0  0  0  0  0  0  0  0  0  0  0
    0.7145    1.2375    0.0000 C    0  0  0  0  0  0  0  0  0  0  0  0
    1.4289    0.8250    0.0000 C    0  0  0  0  0  0  0  0  0  0  0  0
    1.4289    0.0000    0.0000 C    0  0  0  0  0  0  0  0  0  0  0  0
    0.7145   -0.4125    0.0000 C    0  0  0  0  0  0  0  0  0  0  0  0
    0.0000    0.0000    0.0000 C    0  0  0  0  0  0  0  0  0  0  0  0
    0.0000    0.8250    0.0000 C    0  0  0  0  0  0  0  0  0  0  0  0
   -0.4125    1.7605    0.0000 Cl   0  0  0  0  0  0  0  0  0  0  0  0
  1  2  1  0  0  0  0
  2  3  1  0  0  0  0
  3  4  1  0  0  0  0
  4  5  2  0  0  0  0
  4  6  1  0  0  0  0
  3  7  1  0  0  0  0
  7  8  1  0  0  0  0
  8  9  2  0  0  0  0
  9 10  1  0  0  0  0
 10 11  2  0  0  0  0
 11 12  1  0  0  0  0
 12 13  2  0  0  0  0
  8 13  1  0  0  0  0
  3 14  1  0  0  0  0
M  END
> <Molar mass [g/mol] [MProp:scalar:double]>
214.65

> <Exact mass [Da] [MProp:scalar:double]>
214.0396719

> <Formula>
C10H11ClO3

> <Composition>
C (55.96%), H (5.17%), Cl (16.52%), O (22.36%)

> <Lipinski's rule of five [MProp:scalar:boolean]>
true

> <Atom count [MProp:scalar:integer]>
25

> <Heavy atom count [MProp:scalar:integer]>
14

> <Asymmetric atom count [MProp:scalar:integer]>
1

> <Rotatable bond count [MProp:scalar:integer]>
4

> <Ring count [MProp:scalar:integer]>
1

> <Aromatic ring count [MProp:scalar:integer]>
1

> <Hetero ring count [MProp:scalar:integer]>
0

> <FSP3 [MProp:scalar:double]>
0.3

> <Hydrogen bond donor count [MProp:scalar:integer]>
1

> <Hydrogen bond acceptor count [MProp:scalar:integer]>
3

> <Formal charge [MProp:scalar:integer]>
0

> <Topological polar surface area [A^2] [MProp:scalar:double]>
46.53

> <Polarizability [A^3] [MProp:scalar:double]>
20.77

> <Molar refractivity [cm^3/mol] [MProp:scalar:double]>
52.81

> <Van der Waals volume [A^3] [MProp:scalar:double]>
184.2

> <Minimum projection area [A^2] [MProp:scalar:double]>
33.17

> <Maximum projection area [A^2] [MProp:scalar:double]>
61.63

> <Minimum projection radius [A] [MProp:scalar:double]>
4.13

> <Maximum projection radius [A] [MProp:scalar:double]>
5.56

> <Van der Waals surface area [A^2] [MProp:scalar:double]>
298.28

> <Solvent accessible surface area [A^2] [MProp:scalar:double]>
369.44

> <Strongest acidic pKa [MProp:scalar:double]>
2.92

> <Strongest basic pKa>
N/A

> <Isoelectric point>
N/A

> <Intrinsic solubility [logS] [MProp:scalar:double]>
-3.14

> <Solubility category>
High

> <logP [MProp:scalar:double]>
3.31

> <logD_PH0 [MProp:scalar:double]>
3.31

> <logD_PH1 [MProp:scalar:double]>
3.31

> <logD_PH2 [MProp:scalar:double]>
3.26

> <logD_PH3 [MProp:scalar:double]>
2.97

> <logD_PH4 [MProp:scalar:double]>
2.2

> <logD_PH5 [MProp:scalar:double]>
1.25

> <logD_PH6 [MProp:scalar:double]>
0.37

> <logD_PH7 [MProp:scalar:double]>
-0.11

> <logD_PH8 [MProp:scalar:double]>
-0.2

> <logD_PH9 [MProp:scalar:double]>
-0.22

> <logD_PH10 [MProp:scalar:double]>
-0.22

> <logD_PH11 [MProp:scalar:double]>
-0.22

> <logD_PH12 [MProp:scalar:double]>
-0.22

> <logD_PH13 [MProp:scalar:double]>
-0.22

> <logD_PH14 [MProp:scalar:double]>
-0.22

> <HLB [MProp:scalar:double]>
7.55

> <IUPAC name>
2-chloro-2-phenoxybutanoic acid

> <SMILES>
CCC(Cl)(OC1=CC=CC=C1)C(O)=O

> <InChI>
InChI=1/C10H11ClO3/c1-2-10(11,9(12)13)14-8-6-4-3-5-7-8/h3-7H,2H2,1H3,(H,12,13)

> <InChIKey>
FNQXFLGLLXHONX-UHFFFAOYNA-N

> <Traditional name>
2-chloro-2-phenoxybutanoic acid

> <Common names>
N/A

> <CAS Registry Numbers(R)>
N/A

$$$$
Modafinil
  Mrv2222 01232613222D          

 19 20  0  0  0  0            999 V2000
    2.1434   -2.8875    0.0000 C   0  0  0  0  0  0  0  0  0  0  0  0
    1.4289   -2.4750    0.0000 C   0  0  0  0  0  0  0  0  0  0  0  0
    1.4289   -1.6500    0.0000 C   0  0  0  0  0  0  0  0  0  0  0  0
    2.1434   -1.2375    0.0000 C   0  0  0  0  0  0  0  0  0  0  0  0
    2.8579   -1.6500    0.0000 C   0  0  0  0  0  0  0  0  0  0  0  0
    2.8579   -2.4750    0.0000 C   0  0  0  0  0  0  0  0  0  0  0  0
    2.1434   -0.4125    0.0000 C   0  0  0  0  0  0  0  0  0  0  0  0
    2.8579    0.0000    0.0000 C   0  0  0  0  0  0  0  0  0  0  0  0
    2.8579    0.8250    0.0000 C   0  0  0  0  0  0  0  0  0  0  0  0
    3.5724    1.2375    0.0000 C   0  0  0  0  0  0  0  0  0  0  0  0
    4.2868    0.8250    0.0000 C   0  0  0  0  0  0  0  0  0  0  0  0
    4.2868    0.0000    0.0000 C   0  0  0  0  0  0  0  0  0  0  0  0
    3.5724   -0.4125    0.0000 C   0  0  0  0  0  0  0  0  0  0  0  0
    1.4289    0.0000    0.0000 S   0  0  0  0  0  0  0  0  0  0  0  0
    1.4289    0.8250    0.0000 O   0  0  0  0  0  0  0  0  0  0  0  0
    0.7145   -0.4125    0.0000 C   0  0  0  0  0  0  0  0  0  0  0  0
    0.0000    0.0000    0.0000 C   0  0  0  0  0  0  0  0  0  0  0  0
   -0.7145   -0.4125    0.0000 O   0  0  0  0  0  0  0  0  0  0  0  0
    0.0000    0.8250    0.0000 N   0  0  0  0  0  0  0  0  0  0  0  0
  1  2  2  0  0  0  0
  2  3  1  0  0  0  0
  3  4  2  0  0  0  0
  4  5  1  0  0  0  0
  5  6  2  0  0  0  0
  1  6  1  0  0  0  0
  4  7  1  0  0  0  0
  7  8  1  0  0  0  0
  8  9  2  0  0  0  0
  9 10  1  0  0  0  0
 10 11  2  0  0  0  0
 11 12  1  0  0  0  0
 12 13  2  0  0  0  0
  8 13  1  0  0  0  0
  7 14  1  0  0  0  0
 14 15  1  0  0  0  0
 14 16  2  0  0  0  0
 16 17  1  4  0  0  0
 17 18  2  0  0  0  0
 17 19  1  0  0  0  0
M  END
> <Molar mass [g/mol] [MProp:scalar:double]>
273.35

> <Exact mass [Da] [MProp:scalar:double]>
273.082349901

> <Formula>
C15H15NO2S

> <Composition>
C (65.91%), H (5.53%), N (5.12%), O (11.71%), S (11.73%)

> <Lipinski's rule of five [MProp:scalar:boolean]>
true

> <Atom count [MProp:scalar:integer]>
34

> <Heavy atom count [MProp:scalar:integer]>
19

> <Asymmetric atom count [MProp:scalar:integer]>
0

> <Rotatable bond count [MProp:scalar:integer]>
4

> <Ring count [MProp:scalar:integer]>
2

> <Aromatic ring count [MProp:scalar:integer]>
2

> <Hetero ring count [MProp:scalar:integer]>
0

> <FSP3 [MProp:scalar:double]>
0.07

> <Hydrogen bond donor count [MProp:scalar:integer]>
2

> <Hydrogen bond acceptor count [MProp:scalar:integer]>
2

> <Formal charge [MProp:scalar:integer]>
0

> <Topological polar surface area [A^2] [MProp:scalar:double]>
63.32

> <Polarizability [A^3] [MProp:scalar:double]>
30.57

> <Molar refractivity [cm^3/mol] [MProp:scalar:double]>
76.82

> <Van der Waals volume [A^3] [MProp:scalar:double]>
243.76

> <Minimum projection area [A^2] [MProp:scalar:double]>
48.51

> <Maximum projection area [A^2] [MProp:scalar:double]>
74.2

> <Minimum projection radius [A] [MProp:scalar:double]>
5.37

> <Maximum projection radius [A] [MProp:scalar:double]>
6.24

> <Van der Waals surface area [A^2] [MProp:scalar:double]>
368.66

> <Solvent accessible surface area [A^2] [MProp:scalar:double]>
417.63

> <Strongest acidic pKa [MProp:scalar:double]>
10.18

> <Strongest basic pKa [MProp:scalar:double]>
0.11

> <Isoelectric point [MProp:scalar:double]>
5.14

> <Intrinsic solubility [logS] [MProp:scalar:double]>
-3.87

> <Solubility category>
Moderate

> <logP [MProp:scalar:double]>
3.26

> <logD_PH0 [MProp:scalar:double]>
2.91

> <logD_PH1 [MProp:scalar:double]>
3.21

> <logD_PH2 [MProp:scalar:double]>
3.26

> <logD_PH3 [MProp:scalar:double]>
3.26

> <logD_PH4 [MProp:scalar:double]>
3.26

> <logD_PH5 [MProp:scalar:double]>
3.26

> <logD_PH6 [MProp:scalar:double]>
3.26

> <logD_PH7 [MProp:scalar:double]>
3.26

> <logD_PH8 [MProp:scalar:double]>
3.26

> <logD_PH9 [MProp:scalar:double]>
3.24

> <logD_PH10 [MProp:scalar:double]>
3.04

> <logD_PH11 [MProp:scalar:double]>
2.39

> <logD_PH12 [MProp:scalar:double]>
1.54

> <logD_PH13 [MProp:scalar:double]>
1.02

> <logD_PH14 [MProp:scalar:double]>
0.9

> <HLB [MProp:scalar:double]>
11.88

> <IUPAC name>
2-[(diphenylmethyl)(hydroxy)-λ⁴-sulfanylidene]acetamide

> <SMILES>
NC(=O)C=S(O)C(C1=CC=CC=C1)C1=CC=CC=C1

> <InChI>
InChI=1S/C15H15NO2S/c16-14(17)11-19(18)15(12-7-3-1-4-8-12)13-9-5-2-6-10-13/h1-11,15,18H,(H2,16,17)

> <InChIKey>
RSEQQJVSDRWJEL-UHFFFAOYSA-N

> <Traditional name>
2-[(diphenylmethyl)(hydroxy)-λ⁴-sulfanylidene]acetamide

> <Common names>
N/A

> <CAS Registry Numbers(R)>
N/A

$$$$
Morphine
  Mrv2222 01232613222D          

 21 25  0  0  1  0            999 V2000
   -1.2926    1.0341    0.0000 C   0  0  0  0  0  0  0  0  0  0  0  0
   -0.7132    0.4469    0.0000 N   0  0  0  0  0  0  0  0  0  0  0  0
   -0.9533   -0.3842    0.0000 C   0  0  0  0  0  0  0  0  0  0  0  0
   -0.1481   -0.9069    0.0000 C   0  0  0  0  0  0  0  0  0  0  0  0
    0.7114   -0.6779    0.0000 C   0  0  2  0  0  0  0  0  0  0  0  0
    0.3741   -0.0735    0.0000 C   0  0  2  0  0  0  0  0  0  0  0  0
    0.1278    0.6776    0.0000 C   0  0  1  0  0  0  0  0  0  0  0  0
    0.9237    0.9936    0.0000 C   0  0  0  0  0  0  0  0  0  0  0  0
    1.6258    0.4801    0.0000 C   0  0  0  0  0  0  0  0  0  0  0  0
    1.4685   -0.3571    0.0000 C   0  0  0  0  0  0  0  0  0  0  0  0
    1.9963   -0.9898    0.0000 C   0  0  0  0  0  0  0  0  0  0  0  0
    2.7953   -0.7526    0.0000 C   0  0  0  0  0  0  0  0  0  0  0  0
    3.0223    0.0515    0.0000 C   0  0  0  0  0  0  0  0  0  0  0  0
    2.4410    0.6498    0.0000 C   0  0  0  0  0  0  0  0  0  0  0  0
    3.3826   -1.3320    0.0000 O   0  0  0  0  0  0  0  0  0  0  0  0
    1.5328   -1.7025    0.0000 O   0  0  0  0  0  0  0  0  0  0  0  0
    0.7075   -1.5154    0.0000 C   0  0  1  0  0  0  0  0  0  0  0  0
   -0.1167   -1.7604    0.0000 C   0  0  2  0  0  0  0  0  0  0  0  0
   -0.7429   -1.1850    0.0000 C   0  0  0  0  0  0  0  0  0  0  0  0
   -0.4085   -0.3330    0.0000 C   0  0  0  0  0  0  0  0  0  0  0  0
   -0.3024   -2.5642    0.0000 O   0  0  0  0  0  0  0  0  0  0  0  0
  1  2  1  0  0  0  0
  2  3  1  0  0  0  0
  3  4  1  0  0  0  0
  5  4  1  0  0  0  0
  5  6  1  0  0  0  0
  6  7  1  0  0  0  0
  7  2  1  6  0  0  0
  7  8  1  0  0  0  0
  8  9  1  0  0  0  0
  9 10  2  0  0  0  0
  5 10  1  6  0  0  0
 10 11  1  0  0  0  0
 11 12  2  0  0  0  0
 12 13  1  0  0  0  0
 13 14  2  0  0  0  0
  9 14  1  0  0  0  0
 12 15  1  0  0  0  0
 11 16  1  0  0  0  0
 17 16  1  1  0  0  0
  5 17  1  0  0  0  0
 17 18  1  0  0  0  0
 18 19  1  0  0  0  0
 19 20  2  0  0  0  0
  6 20  1  1  0  0  0
 18 21  1  1  0  0  0
M  END
> <Molar mass [g/mol] [MProp:scalar:double]>
285.343

> <Exact mass [Da] [MProp:scalar:double]>
285.136493476

> <Formula>
C17H19NO3

> <Composition>
C (71.56%), H (6.71%), N (4.91%), O (16.82%)

> <Lipinski's rule of five [MProp:scalar:boolean]>
true

> <Atom count [MProp:scalar:integer]>
40

> <Heavy atom count [MProp:scalar:integer]>
21

> <Asymmetric atom count [MProp:scalar:integer]>
5

> <Rotatable bond count [MProp:scalar:integer]>
0

> <Ring count [MProp:scalar:integer]>
5

> <Aromatic ring count [MProp:scalar:integer]>
1

> <Hetero ring count [MProp:scalar:integer]>
2

> <FSP3 [MProp:scalar:double]>
0.53

> <Hydrogen bond donor count [MProp:scalar:integer]>
2

> <Hydrogen bond acceptor count [MProp:scalar:integer]>
4

> <Formal charge [MProp:scalar:integer]>
0

> <Topological polar surface area [A^2] [MProp:scalar:double]>
52.93

> <Polarizability [A^3] [MProp:scalar:double]>
30.7

> <Molar refractivity [cm^3/mol] [MProp:scalar:double]>
80.12

> <Van der Waals volume [A^3] [MProp:scalar:double]>
255.58

> <Minimum projection area [A^2] [MProp:scalar:double]>
47.08

> <Maximum projection area [A^2] [MProp:scalar:double]>
70.08

> <Minimum projection radius [A] [MProp:scalar:double]>
4.71

> <Maximum projection radius [A] [MProp:scalar:double]>
5.83

> <Van der Waals surface area [A^2] [MProp:scalar:double]>
388.43

> <Solvent accessible surface area [A^2] [MProp:scalar:double]>
362.43

> <Strongest acidic pKa [MProp:scalar:double]>
9.53

> <Strongest basic pKa [MProp:scalar:double]>
8.65

> <Isoelectric point [MProp:scalar:double]>
8.98

> <Intrinsic solubility [logS] [MProp:scalar:double]>
-1.41

> <Solubility category>
High

> <logP [MProp:scalar:double]>
0.72

> <logD_PH0 [MProp:scalar:double]>
-2.3

> <logD_PH1 [MProp:scalar:double]>
-2.3

> <logD_PH2 [MProp:scalar:double]>
-2.3

> <logD_PH3 [MProp:scalar:double]>
-2.3

> <logD_PH4 [MProp:scalar:double]>
-2.29

> <logD_PH5 [MProp:scalar:double]>
-2.15

> <logD_PH6 [MProp:scalar:double]>
-1.6

> <logD_PH7 [MProp:scalar:double]>
-0.69

> <logD_PH8 [MProp:scalar:double]>
0.22

> <logD_PH9 [MProp:scalar:double]>
0.72

> <logD_PH10 [MProp:scalar:double]>
0.37

> <logD_PH11 [MProp:scalar:double]>
-0.41

> <logD_PH12 [MProp:scalar:double]>
-0.89

> <logD_PH13 [MProp:scalar:double]>
-1.06

> <logD_PH14 [MProp:scalar:double]>
-1.42

> <HLB [MProp:scalar:double]>
13.71

> <IUPAC name>
(1S,5R,13R,14S,17R)-4-methyl-12-oxa-4-azapentacyclo[9.6.1.0¹,¹³.0⁵,¹⁷.0⁷,¹⁸]octadeca-7(18),8,10,15-tetraene-10,14-diol

> <SMILES>
CN1CC[C@]23[C@H]4OC5=C(O)C=CC(C[C@@H]1[C@@H]2C=C[C@@H]4O)=C35

> <InChI>
InChI=1S/C17H19NO3/c1-18-7-6-17-10-3-5-13(20)16(17)21-15-12(19)4-2-9(14(15)17)8-11(10)18/h2-5,10-11,13,16,19-20H,6-8H2,1H3/t10-,11-,13-,16+,17+/m0/s1

> <InChIKey>
BQJCRHHNABKAKU-KBQPJGBKSA-N

> <Traditional name>
morphine

> <Common names>
D-(-)-morphine; M.O.S; MS/L; MS/S; MSIR; depodur; dulcontin; duromorph; epimorph; meconium; morfina; morphia; morphina; morphinism; morphinum; morphitec; morphium; moscontin; nepenthe; oms concentrate; ospalivina; rescudose; rms uniserts; roxanol; roxanol 100; roxanol UD; statex drops

> <CAS Registry Numbers(R)>
57-27-2

$$$$
N,N,N',N'-Tetraacetylethylenediamine
  Mrv2222 01232613222D          

 16 15  0  0  0  0            999 V2000
    4.5375   -3.5724    0.0000 C   0  0  0  0  0  0  0  0  0  0  0  0
    3.7125   -3.5724    0.0000 C   0  0  0  0  0  0  0  0  0  0  0  0
    3.3000   -4.2868    0.0000 O   0  0  0  0  0  0  0  0  0  0  0  0
    3.3000   -2.8579    0.0000 N   0  0  0  0  0  0  0  0  0  0  0  0
    2.4750   -2.8579    0.0000 C   0  0  0  0  0  0  0  0  0  0  0  0
    2.0625   -2.1434    0.0000 C   0  0  0  0  0  0  0  0  0  0  0  0
    1.2375   -2.1434    0.0000 N   0  0  0  0  0  0  0  0  0  0  0  0
    0.8250   -1.4289    0.0000 C   0  0  0  0  0  0  0  0  0  0  0  0
    0.0000   -1.4289    0.0000 O   0  0  0  0  0  0  0  0  0  0  0  0
    1.2375   -0.7145    0.0000 C   0  0  0  0  0  0  0  0  0  0  0  0
    0.8250   -2.8579    0.0000 C   0  0  0  0  0  0  0  0  0  0  0  0
    0.0000   -2.8579    0.0000 O   0  0  0  0  0  0  0  0  0  0  0  0
    1.2375   -3.5724    0.0000 C   0  0  0  0  0  0  0  0  0  0  0  0
    3.7125   -2.1434    0.0000 C   0  0  0  0  0  0  0  0  0  0  0  0
    3.3000   -1.4289    0.0000 O   0  0  0  0  0  0  0  0  0  0  0  0
    4.5375   -2.1434    0.0000 C   0  0  0  0  0  0  0  0  0  0  0  0
  1  2  1  0  0  0  0
  2  3  2  0  0  0  0
  2  4  1  0  0  0  0
  4  5  1  0  0  0  0
  5  6  1  0  0  0  0
  6  7  1  0  0  0  0
  7  8  1  0  0  0  0
  8  9  2  0  0  0  0
  8 10  1  0  0  0  0
  7 11  1  0  0  0  0
 11 12  2  0  0  0  0
 11 13  1  0  0  0  0
  4 14  1  0  0  0  0
 14 15  2  0  0  0  0
 14 16  1  0  0  0  0
M  END
> <Molar mass [g/mol] [MProp:scalar:double]>
228.248

> <Exact mass [Da] [MProp:scalar:double]>
228.111007003

> <Formula>
C10H16N2O4

> <Composition>
C (52.62%), H (7.07%), N (12.27%), O (28.04%)

> <Lipinski's rule of five [MProp:scalar:boolean]>
true

> <Atom count [MProp:scalar:integer]>
32

> <Heavy atom count [MProp:scalar:integer]>
16

> <Asymmetric atom count [MProp:scalar:integer]>
0

> <Rotatable bond count [MProp:scalar:integer]>
3

> <Ring count [MProp:scalar:integer]>
0

> <Aromatic ring count [MProp:scalar:integer]>
0

> <Hetero ring count [MProp:scalar:integer]>
0

> <FSP3 [MProp:scalar:double]>
0.6

> <Hydrogen bond donor count [MProp:scalar:integer]>
0

> <Hydrogen bond acceptor count [MProp:scalar:integer]>
4

> <Formal charge [MProp:scalar:integer]>
0

> <Topological polar surface area [A^2] [MProp:scalar:double]>
74.76

> <Polarizability [A^3] [MProp:scalar:double]>
21.83

> <Molar refractivity [cm^3/mol] [MProp:scalar:double]>
55.89

> <Van der Waals volume [A^3] [MProp:scalar:double]>
215.49

> <Minimum projection area [A^2] [MProp:scalar:double]>
44.63

> <Maximum projection area [A^2] [MProp:scalar:double]>
68.52

> <Minimum projection radius [A] [MProp:scalar:double]>
4.5

> <Maximum projection radius [A] [MProp:scalar:double]>
5.39

> <Van der Waals surface area [A^2] [MProp:scalar:double]>
363.09

> <Solvent accessible surface area [A^2] [MProp:scalar:double]>
392.58

> <Strongest acidic pKa>
N/A

> <Strongest basic pKa [MProp:scalar:double]>
-0.38

> <Isoelectric point>
N/A

> <Intrinsic solubility [logS] [MProp:scalar:double]>
-0.83

> <Solubility category>
High

> <logP [MProp:scalar:double]>
-1.81

> <logD_PH0 [MProp:scalar:double]>
-1.97

> <logD_PH1 [MProp:scalar:double]>
-1.83

> <logD_PH2 [MProp:scalar:double]>
-1.81

> <logD_PH3 [MProp:scalar:double]>
-1.81

> <logD_PH4 [MProp:scalar:double]>
-1.81

> <logD_PH5 [MProp:scalar:double]>
-1.81

> <logD_PH6 [MProp:scalar:double]>
-1.81

> <logD_PH7 [MProp:scalar:double]>
-1.81

> <logD_PH8 [MProp:scalar:double]>
-1.81

> <logD_PH9 [MProp:scalar:double]>
-1.81

> <logD_PH10 [MProp:scalar:double]>
-1.81

> <logD_PH11 [MProp:scalar:double]>
-1.81

> <logD_PH12 [MProp:scalar:double]>
-1.81

> <logD_PH13 [MProp:scalar:double]>
-1.81

> <logD_PH14 [MProp:scalar:double]>
-1.81

> <HLB [MProp:scalar:double]>
19.66

> <IUPAC name>
N-acetyl-N-[2-(N-acetylacetamido)ethyl]acetamide

> <SMILES>
CC(=O)N(CCN(C(C)=O)C(C)=O)C(C)=O

> <InChI>
InChI=1S/C10H16N2O4/c1-7(13)11(8(2)14)5-6-12(9(3)15)10(4)16/h5-6H2,1-4H3

> <InChIKey>
BGRWYDHXPHLNKA-UHFFFAOYSA-N

> <Traditional name>
TAED

> <Common names>
TAED; tetraacetylethylenediamine

> <CAS Registry Numbers(R)>
10543-57-4

$$$$
N,N-diethyl-m-toluamide
  Mrv2222 01232613222D          

 14 14  0  0  0  0            999 V2000
   -0.7145    3.7125    0.0000 C   0  0  0  0  0  0  0  0  0  0  0  0
    0.0000    3.3000    0.0000 C   0  0  0  0  0  0  0  0  0  0  0  0
    0.0000    2.4750    0.0000 N   0  0  0  0  0  0  0  0  0  0  0  0
   -0.7145    2.0625    0.0000 C   0  0  0  0  0  0  0  0  0  0  0  0
   -0.7145    1.2375    0.0000 C   0  0  0  0  0  0  0  0  0  0  0  0
    0.7145    2.0625    0.0000 C   0  0  0  0  0  0  0  0  0  0  0  0
    1.4289    2.4750    0.0000 O   0  0  0  0  0  0  0  0  0  0  0  0
    0.7145    1.2375    0.0000 C   0  0  0  0  0  0  0  0  0  0  0  0
    1.4289    0.8250    0.0000 C   0  0  0  0  0  0  0  0  0  0  0  0
    1.4289    0.0000    0.0000 C   0  0  0  0  0  0  0  0  0  0  0  0
    0.7145   -0.4125    0.0000 C   0  0  0  0  0  0  0  0  0  0  0  0
    0.0000    0.0000    0.0000 C   0  0  0  0  0  0  0  0  0  0  0  0
    0.0000    0.8250    0.0000 C   0  0  0  0  0  0  0  0  0  0  0  0
   -0.7145   -0.4125    0.0000 C   0  0  0  0  0  0  0  0  0  0  0  0
  1  2  1  0  0  0  0
  2  3  1  0  0  0  0
  3  4  1  0  0  0  0
  4  5  1  0  0  0  0
  3  6  1  0  0  0  0
  6  7  2  0  0  0  0
  6  8  1  0  0  0  0
  8  9  2  0  0  0  0
  9 10  1  0  0  0  0
 10 11  2  0  0  0  0
 11 12  1  0  0  0  0
 12 13  2  0  0  0  0
  8 13  1  0  0  0  0
 12 14  1  0  0  0  0
M  END
> <Molar mass [g/mol] [MProp:scalar:double]>
191.274

> <Exact mass [Da] [MProp:scalar:double]>
191.131014171

> <Formula>
C12H17NO

> <Composition>
C (75.35%), H (8.96%), N (7.32%), O (8.36%)

> <Lipinski's rule of five [MProp:scalar:boolean]>
true

> <Atom count [MProp:scalar:integer]>
31

> <Heavy atom count [MProp:scalar:integer]>
14

> <Asymmetric atom count [MProp:scalar:integer]>
0

> <Rotatable bond count [MProp:scalar:integer]>
3

> <Ring count [MProp:scalar:integer]>
1

> <Aromatic ring count [MProp:scalar:integer]>
1

> <Hetero ring count [MProp:scalar:integer]>
0

> <FSP3 [MProp:scalar:double]>
0.42

> <Hydrogen bond donor count [MProp:scalar:integer]>
0

> <Hydrogen bond acceptor count [MProp:scalar:integer]>
1

> <Formal charge [MProp:scalar:integer]>
0

> <Topological polar surface area [A^2] [MProp:scalar:double]>
20.31

> <Polarizability [A^3] [MProp:scalar:double]>
22.29

> <Molar refractivity [cm^3/mol] [MProp:scalar:double]>
59.47

> <Van der Waals volume [A^3] [MProp:scalar:double]>
198.31

> <Minimum projection area [A^2] [MProp:scalar:double]>
41.22

> <Maximum projection area [A^2] [MProp:scalar:double]>
57.93

> <Minimum projection radius [A] [MProp:scalar:double]>
4.4

> <Maximum projection radius [A] [MProp:scalar:double]>
5.55

> <Van der Waals surface area [A^2] [MProp:scalar:double]>
342.91

> <Solvent accessible surface area [A^2] [MProp:scalar:double]>
435.69

> <Strongest acidic pKa>
N/A

> <Strongest basic pKa [MProp:scalar:double]>
0.43

> <Isoelectric point>
N/A

> <Intrinsic solubility [logS] [MProp:scalar:double]>
-2.86

> <Solubility category>
High

> <logP [MProp:scalar:double]>
2.5

> <logD_PH0 [MProp:scalar:double]>
1.93

> <logD_PH1 [MProp:scalar:double]>
2.39

> <logD_PH2 [MProp:scalar:double]>
2.49

> <logD_PH3 [MProp:scalar:double]>
2.5

> <logD_PH4 [MProp:scalar:double]>
2.5

> <logD_PH5 [MProp:scalar:double]>
2.5

> <logD_PH6 [MProp:scalar:double]>
2.5

> <logD_PH7 [MProp:scalar:double]>
2.5

> <logD_PH8 [MProp:scalar:double]>
2.5

> <logD_PH9 [MProp:scalar:double]>
2.5

> <logD_PH10 [MProp:scalar:double]>
2.5

> <logD_PH11 [MProp:scalar:double]>
2.5

> <logD_PH12 [MProp:scalar:double]>
2.5

> <logD_PH13 [MProp:scalar:double]>
2.5

> <logD_PH14 [MProp:scalar:double]>
2.5

> <HLB [MProp:scalar:double]>
10.34

> <IUPAC name>
N,N-diethyl-3-methylbenzamide

> <SMILES>
CCN(CC)C(=O)C1=CC=CC(C)=C1

> <InChI>
InChI=1S/C12H17NO/c1-4-13(5-2)12(14)11-8-6-7-10(3)9-11/h6-9H,4-5H2,1-3H3

> <InChIKey>
MMOXZBCLCQITDF-UHFFFAOYSA-N

> <Traditional name>
DETA

> <Common names>
2,5-di-me-analog deet; DEET; DETA; Deet; M-det; MGK; N,N diethyltoluamide; N,N-diethyltoluamide; Repper-DET; amincene C 140; amincene C-EM; autan; bepper det; caswell no. 346; deet; deet, 2,5-di-me-analog; delphene; det (insect repellant); deta-20; detamide; dieltamid; diethyl toluamide; diethyl-m-toluamide; diethyltoluamide; diethyltoluamide (substance); diethyltoluamidum; dietiltoluamida; epa pesticide chemical code 080301; flypel; m-delphene; m-deta; metadelphene; mgk diethyltoluamide; muscol; n,n diethyltoluamide; n,n-diethyltoluamide; naugatuck det; repel; repper det; repudin-special; 二乙甲苯酚胺

> <CAS Registry Numbers(R)>
134-62-3

$$$$
N,N-Dimethylaniline
  Mrv2222 01232613222D          

  9  9  0  0  0  0            999 V2000
    0.0000    2.4750    0.0000 C   0  0  0  0  0  0  0  0  0  0  0  0
    0.7145    2.0625    0.0000 N   0  0  0  0  0  0  0  0  0  0  0  0
    1.4289    2.4750    0.0000 C   0  0  0  0  0  0  0  0  0  0  0  0
    0.7145    1.2375    0.0000 C   0  0  0  0  0  0  0  0  0  0  0  0
    1.4289    0.8250    0.0000 C   0  0  0  0  0  0  0  0  0  0  0  0
    1.4289    0.0000    0.0000 C   0  0  0  0  0  0  0  0  0  0  0  0
    0.7145   -0.4125    0.0000 C   0  0  0  0  0  0  0  0  0  0  0  0
    0.0000    0.0000    0.0000 C   0  0  0  0  0  0  0  0  0  0  0  0
    0.0000    0.8250    0.0000 C   0  0  0  0  0  0  0  0  0  0  0  0
  1  2  1  0  0  0  0
  2  3  1  0  0  0  0
  2  4  1  0  0  0  0
  4  5  2  0  0  0  0
  5  6  1  0  0  0  0
  6  7  2  0  0  0  0
  7  8  1  0  0  0  0
  8  9  2  0  0  0  0
  4  9  1  0  0  0  0
M  END
> <Molar mass [g/mol] [MProp:scalar:double]>
121.183

> <Exact mass [Da] [MProp:scalar:double]>
121.089149358

> <Formula>
C8H11N

> <Composition>
C (79.29%), H (9.15%), N (11.56%)

> <Lipinski's rule of five [MProp:scalar:boolean]>
true

> <Atom count [MProp:scalar:integer]>
20

> <Heavy atom count [MProp:scalar:integer]>
9

> <Asymmetric atom count [MProp:scalar:integer]>
0

> <Rotatable bond count [MProp:scalar:integer]>
1

> <Ring count [MProp:scalar:integer]>
1

> <Aromatic ring count [MProp:scalar:integer]>
1

> <Hetero ring count [MProp:scalar:integer]>
0

> <FSP3 [MProp:scalar:double]>
0.25

> <Hydrogen bond donor count [MProp:scalar:integer]>
0

> <Hydrogen bond acceptor count [MProp:scalar:integer]>
1

> <Formal charge [MProp:scalar:integer]>
0

> <Topological polar surface area [A^2] [MProp:scalar:double]>
3.24

> <Polarizability [A^3] [MProp:scalar:double]>
15.19

> <Molar refractivity [cm^3/mol] [MProp:scalar:double]>
40.49

> <Van der Waals volume [A^3] [MProp:scalar:double]>
128.58

> <Minimum projection area [A^2] [MProp:scalar:double]>
24.59

> <Maximum projection area [A^2] [MProp:scalar:double]>
48.57

> <Minimum projection radius [A] [MProp:scalar:double]>
3.47

> <Maximum projection radius [A] [MProp:scalar:double]>
4.67

> <Van der Waals surface area [A^2] [MProp:scalar:double]>
222.29

> <Solvent accessible surface area [A^2] [MProp:scalar:double]>
330.14

> <Strongest acidic pKa>
N/A

> <Strongest basic pKa [MProp:scalar:double]>
5.02

> <Isoelectric point>
N/A

> <Intrinsic solubility [logS] [MProp:scalar:double]>
-1.21

> <Solubility category>
High

> <logP [MProp:scalar:double]>
2.08

> <logD_PH0 [MProp:scalar:double]>
-0.98

> <logD_PH1 [MProp:scalar:double]>
-0.94

> <logD_PH2 [MProp:scalar:double]>
-0.66

> <logD_PH3 [MProp:scalar:double]>
0.09

> <logD_PH4 [MProp:scalar:double]>
1.02

> <logD_PH5 [MProp:scalar:double]>
1.77

> <logD_PH6 [MProp:scalar:double]>
2.04

> <logD_PH7 [MProp:scalar:double]>
2.08

> <logD_PH8 [MProp:scalar:double]>
2.08

> <logD_PH9 [MProp:scalar:double]>
2.08

> <logD_PH10 [MProp:scalar:double]>
2.08

> <logD_PH11 [MProp:scalar:double]>
2.08

> <logD_PH12 [MProp:scalar:double]>
2.08

> <logD_PH13 [MProp:scalar:double]>
2.08

> <logD_PH14 [MProp:scalar:double]>
2.08

> <HLB [MProp:scalar:double]>
6.32

> <IUPAC name>
N,N-dimethylaniline

> <SMILES>
CN(C)C1=CC=CC=C1

> <InChI>
InChI=1S/C8H11N/c1-9(2)8-6-4-3-5-7-8/h3-7H,1-2H3

> <InChIKey>
JLTDJTHDQAWBAV-UHFFFAOYSA-N

> <Traditional name>
dimethylaniline

> <Common names>
N,N-(dimethylamino)benzene; dwumetyloanilina; versneller NL 63/10

> <CAS Registry Numbers(R)>
121-69-7, 86362-18-7, 101357-19-1

$$$$
Naproxen
  Mrv2222 01232613222D          

 17 18  0  0  1  0            999 V2000
   -1.4289   -2.4750    0.0000 C   0  0  0  0  0  0  0  0  0  0  0  0
   -1.4289   -1.6500    0.0000 C   0  0  1  0  0  0  0  0  0  0  0  0
   -0.7145   -1.2375    0.0000 C   0  0  0  0  0  0  0  0  0  0  0  0
    0.0000   -1.6500    0.0000 C   0  0  0  0  0  0  0  0  0  0  0  0
    0.7145   -1.2375    0.0000 C   0  0  0  0  0  0  0  0  0  0  0  0
    0.7145   -0.4125    0.0000 C   0  0  0  0  0  0  0  0  0  0  0  0
    0.0000    0.0000    0.0000 C   0  0  0  0  0  0  0  0  0  0  0  0
   -0.7145   -0.4125    0.0000 C   0  0  0  0  0  0  0  0  0  0  0  0
    1.4289    0.0000    0.0000 C   0  0  0  0  0  0  0  0  0  0  0  0
    2.1434   -0.4125    0.0000 C   0  0  0  0  0  0  0  0  0  0  0  0
    2.1434   -1.2375    0.0000 C   0  0  0  0  0  0  0  0  0  0  0  0
    1.4289   -1.6500    0.0000 C   0  0  0  0  0  0  0  0  0  0  0  0
    2.8579    0.0000    0.0000 O   0  0  0  0  0  0  0  0  0  0  0  0
    3.5724   -0.4125    0.0000 C   0  0  0  0  0  0  0  0  0  0  0  0
   -2.1434   -1.2375    0.0000 C   0  0  0  0  0  0  0  0  0  0  0  0
   -2.8579   -1.6500    0.0000 O   0  0  0  0  0  0  0  0  0  0  0  0
   -2.1434   -0.4125    0.0000 O   0  0  0  0  0  0  0  0  0  0  0  0
  2  1  1  6  0  0  0
  2  3  1  0  0  0  0
  3  4  2  0  0  0  0
  4  5  1  0  0  0  0
  5  6  1  0  0  0  0
  6  7  1  0  0  0  0
  7  8  2  0  0  0  0
  3  8  1  0  0  0  0
  6  9  2  0  0  0  0
  9 10  1  0  0  0  0
 10 11  2  0  0  0  0
 11 12  1  0  0  0  0
  5 12  2  0  0  0  0
 10 13  1  0  0  0  0
 13 14  1  0  0  0  0
  2 15  1  0  0  0  0
 15 16  2  0  0  0  0
 15 17  1  0  0  0  0
M  END
> <Molar mass [g/mol] [MProp:scalar:double]>
230.263

> <Exact mass [Da] [MProp:scalar:double]>
230.094294311

> <Formula>
C14H14O3

> <Composition>
C (73.03%), H (6.13%), O (20.84%)

> <Lipinski's rule of five [MProp:scalar:boolean]>
true

> <Atom count [MProp:scalar:integer]>
31

> <Heavy atom count [MProp:scalar:integer]>
17

> <Asymmetric atom count [MProp:scalar:integer]>
1

> <Rotatable bond count [MProp:scalar:integer]>
3

> <Ring count [MProp:scalar:integer]>
2

> <Aromatic ring count [MProp:scalar:integer]>
2

> <Hetero ring count [MProp:scalar:integer]>
0

> <FSP3 [MProp:scalar:double]>
0.21

> <Hydrogen bond donor count [MProp:scalar:integer]>
1

> <Hydrogen bond acceptor count [MProp:scalar:integer]>
3

> <Formal charge [MProp:scalar:integer]>
0

> <Topological polar surface area [A^2] [MProp:scalar:double]>
46.53

> <Polarizability [A^3] [MProp:scalar:double]>
26.39

> <Molar refractivity [cm^3/mol] [MProp:scalar:double]>
64.85

> <Van der Waals volume [A^3] [MProp:scalar:double]>
213.08

> <Minimum projection area [A^2] [MProp:scalar:double]>
34.56

> <Maximum projection area [A^2] [MProp:scalar:double]>
71.16

> <Minimum projection radius [A] [MProp:scalar:double]>
3.93

> <Maximum projection radius [A] [MProp:scalar:double]>
7.19

> <Van der Waals surface area [A^2] [MProp:scalar:double]>
343.72

> <Solvent accessible surface area [A^2] [MProp:scalar:double]>
452.5

> <Strongest acidic pKa [MProp:scalar:double]>
4.24

> <Strongest basic pKa>
N/A

> <Isoelectric point>
N/A

> <Intrinsic solubility [logS] [MProp:scalar:double]>
-3.45

> <Solubility category>
High

> <logP [MProp:scalar:double]>
2.99

> <logD_PH0 [MProp:scalar:double]>
2.99

> <logD_PH1 [MProp:scalar:double]>
2.99

> <logD_PH2 [MProp:scalar:double]>
2.98

> <logD_PH3 [MProp:scalar:double]>
2.96

> <logD_PH4 [MProp:scalar:double]>
2.79

> <logD_PH5 [MProp:scalar:double]>
2.16

> <logD_PH6 [MProp:scalar:double]>
1.22

> <logD_PH7 [MProp:scalar:double]>
0.29

> <logD_PH8 [MProp:scalar:double]>
-0.34

> <logD_PH9 [MProp:scalar:double]>
-0.52

> <logD_PH10 [MProp:scalar:double]>
-0.54

> <logD_PH11 [MProp:scalar:double]>
-0.54

> <logD_PH12 [MProp:scalar:double]>
-0.54

> <logD_PH13 [MProp:scalar:double]>
-0.54

> <logD_PH14 [MProp:scalar:double]>
-0.54

> <HLB [MProp:scalar:double]>
6.76

> <IUPAC name>
(2S)-2-(6-methoxynaphthalen-2-yl)propanoic acid

> <SMILES>
COC1=CC=C2C=C(C=CC2=C1)[C@H](C)C(O)=O

> <InChI>
InChI=1S/C14H14O3/c1-9(14(15)16)10-3-4-12-8-13(17-2)6-5-11(12)7-10/h3-9H,1-2H3,(H,15,16)/t9-/m0/s1

> <InChIKey>
CMWTZPSULFXXJA-VIFPVBQESA-N

> <Traditional name>
naproxen

> <Common names>
(+)-(S)-naproxen; (+)-naproxen; (S)-(+)-naproxen; (S)-naproxen; Anax; Axer; Duk; MNPA; U-ritis; acusprain; anexopen; apo-napro-NA; apo-naproxen; apronax; artagen; arthrisil; artrixen; artroxen; atiflan; bipronyl; calosen; clinosyn; congex; d-naproxen; danaprox; daprox; dysmenalgit N; flanax forte; flexen; flexipen; fuxen; genoxen; headlon; lefaine; leniartil; methoxypropiocin; nafasol; nalyxan; napflam; napmel; naposin; napratec; napren E; naprontag; naprosin; naprosyn lle; naprosyn lle forte; naproxen; naproxen (product); naproxen (substance); naproxen preparation; naproxene; naproxeno; naproxenum; naproxi 250; naproxi 500; napxen; narma; narocin; naxen F; naxid; naxopren; naxyn 250; naxyn 500; noflam; novonaprox; patxen; prafena; priaxen; pronaxen; proxen LE; proxen lle; rahsen; rheumaflex; roxen; saritilron; sinartrin; sinton; soproxen; sutolin; sutony; synflex; tohexen; traumox; velsay; vinsen

> <CAS Registry Numbers(R)>
22204-53-1, 131991-52-1

$$$$
Nitrobenzene
  Mrv2222 01232613222D          

  9  9  0  0  0  0            999 V2000
    0.7145   -0.4125    0.0000 C   0  0  0  0  0  0  0  0  0  0  0  0
    0.0000    0.0000    0.0000 C   0  0  0  0  0  0  0  0  0  0  0  0
    0.0000    0.8250    0.0000 C   0  0  0  0  0  0  0  0  0  0  0  0
    0.7145    1.2375    0.0000 C   0  0  0  0  0  0  0  0  0  0  0  0
    1.4289    0.8250    0.0000 C   0  0  0  0  0  0  0  0  0  0  0  0
    1.4289    0.0000    0.0000 C   0  0  0  0  0  0  0  0  0  0  0  0
    0.7145    2.0625    0.0000 N   0  3  0  0  0  0  0  0  0  0  0  0
    0.0000    2.4750    0.0000 O   0  0  0  0  0  0  0  0  0  0  0  0
    1.4289    2.4750    0.0000 O   0  5  0  0  0  0  0  0  0  0  0  0
  1  2  2  0  0  0  0
  2  3  1  0  0  0  0
  3  4  2  0  0  0  0
  4  5  1  0  0  0  0
  5  6  2  0  0  0  0
  1  6  1  0  0  0  0
  4  7  1  0  0  0  0
  7  8  2  0  0  0  0
  7  9  1  0  0  0  0
M  END
> <Molar mass [g/mol] [MProp:scalar:double]>
123.111

> <Exact mass [Da] [MProp:scalar:double]>
123.032028405

> <Formula>
C6H5NO2

> <Composition>
C (58.54%), H (4.09%), N (11.38%), O (25.99%)

> <Lipinski's rule of five [MProp:scalar:boolean]>
true

> <Atom count [MProp:scalar:integer]>
14

> <Heavy atom count [MProp:scalar:integer]>
9

> <Asymmetric atom count [MProp:scalar:integer]>
0

> <Rotatable bond count [MProp:scalar:integer]>
1

> <Ring count [MProp:scalar:integer]>
1

> <Aromatic ring count [MProp:scalar:integer]>
1

> <Hetero ring count [MProp:scalar:integer]>
0

> <FSP3 [MProp:scalar:double]>
0.0

> <Hydrogen bond donor count [MProp:scalar:integer]>
0

> <Hydrogen bond acceptor count [MProp:scalar:integer]>
2

> <Formal charge [MProp:scalar:integer]>
0

> <Topological polar surface area [A^2] [MProp:scalar:double]>
43.14

> <Polarizability [A^3] [MProp:scalar:double]>
12.2

> <Molar refractivity [cm^3/mol] [MProp:scalar:double]>
32.38

> <Van der Waals volume [A^3] [MProp:scalar:double]>
104.98

> <Minimum projection area [A^2] [MProp:scalar:double]>
19.2

> <Maximum projection area [A^2] [MProp:scalar:double]>
42.86

> <Minimum projection radius [A] [MProp:scalar:double]>
3.4

> <Maximum projection radius [A] [MProp:scalar:double]>
4.36

> <Van der Waals surface area [A^2] [MProp:scalar:double]>
173.91

> <Solvent accessible surface area [A^2] [MProp:scalar:double]>
290.67

> <Strongest acidic pKa>
N/A

> <Strongest basic pKa>
N/A

> <Isoelectric point>
N/A

> <Intrinsic solubility [logS] [MProp:scalar:double]>
-2.08

> <Solubility category>
High

> <logP [MProp:scalar:double]>
1.91

> <logD_PH0 [MProp:scalar:double]>
1.91

> <logD_PH1 [MProp:scalar:double]>
1.91

> <logD_PH2 [MProp:scalar:double]>
1.91

> <logD_PH3 [MProp:scalar:double]>
1.91

> <logD_PH4 [MProp:scalar:double]>
1.91

> <logD_PH5 [MProp:scalar:double]>
1.91

> <logD_PH6 [MProp:scalar:double]>
1.91

> <logD_PH7 [MProp:scalar:double]>
1.91

> <logD_PH8 [MProp:scalar:double]>
1.91

> <logD_PH9 [MProp:scalar:double]>
1.91

> <logD_PH10 [MProp:scalar:double]>
1.91

> <logD_PH11 [MProp:scalar:double]>
1.91

> <logD_PH12 [MProp:scalar:double]>
1.91

> <logD_PH13 [MProp:scalar:double]>
1.91

> <logD_PH14 [MProp:scalar:double]>
1.91

> <HLB [MProp:scalar:double]>
7.42

> <IUPAC name>
nitrobenzene

> <SMILES>
[O-][N+](=O)C1=CC=CC=C1

> <InChI>
InChI=1S/C6H5NO2/c8-7(9)6-4-2-1-3-5-6/h1-5H

> <InChIKey>
LQNUZADURLCDLV-UHFFFAOYSA-N

> <Traditional name>
nitrobenzene

> <Common names>
oil of mirbane

> <CAS Registry Numbers(R)>
98-95-3

$$$$
Acetaminophensulfate
  Mrv2222 01232613222D          

 15 15  0  0  0  0            999 V2000
    0.0000    3.3000    0.0000 C   0  0  0  0  0  0  0  0  0  0  0  0
    0.0000    2.4750    0.0000 C   0  0  0  0  0  0  0  0  0  0  0  0
   -0.7145    2.0625    0.0000 O   0  0  0  0  0  0  0  0  0  0  0  0
    0.7145    2.0625    0.0000 N   0  0  0  0  0  0  0  0  0  0  0  0
    0.7145    1.2375    0.0000 C   0  0  0  0  0  0  0  0  0  0  0  0
    1.4289    0.8250    0.0000 C   0  0  0  0  0  0  0  0  0  0  0  0
    1.4289    0.0000    0.0000 C   0  0  0  0  0  0  0  0  0  0  0  0
    0.7145   -0.4125    0.0000 C   0  0  0  0  0  0  0  0  0  0  0  0
    0.0000    0.0000    0.0000 C   0  0  0  0  0  0  0  0  0  0  0  0
    0.0000    0.8250    0.0000 C   0  0  0  0  0  0  0  0  0  0  0  0
    0.7145   -1.2375    0.0000 O   0  0  0  0  0  0  0  0  0  0  0  0
    1.4289   -1.6500    0.0000 S   0  0  0  0  0  0  0  0  0  0  0  0
    2.1434   -2.0625    0.0000 O   0  0  0  0  0  0  0  0  0  0  0  0
    1.0164   -2.3645    0.0000 O   0  0  0  0  0  0  0  0  0  0  0  0
    1.8414   -0.9355    0.0000 O   0  0  0  0  0  0  0  0  0  0  0  0
  1  2  1  0  0  0  0
  2  3  2  0  0  0  0
  2  4  1  0  0  0  0
  4  5  1  0  0  0  0
  5  6  2  0  0  0  0
  6  7  1  0  0  0  0
  7  8  2  0  0  0  0
  8  9  1  0  0  0  0
  9 10  2  0  0  0  0
  5 10  1  0  0  0  0
  8 11  1  0  0  0  0
 11 12  1  0  0  0  0
 12 13  2  0  0  0  0
 12 14  2  0  0  0  0
 12 15  1  0  0  0  0
M  END
> <Molar mass [g/mol] [MProp:scalar:double]>
231.22

> <Exact mass [Da] [MProp:scalar:double]>
231.020143568

> <Formula>
C8H9NO5S

> <Composition>
C (41.56%), H (3.92%), N (6.06%), O (34.60%), S (13.87%)

> <Lipinski's rule of five [MProp:scalar:boolean]>
true

> <Atom count [MProp:scalar:integer]>
24

> <Heavy atom count [MProp:scalar:integer]>
15

> <Asymmetric atom count [MProp:scalar:integer]>
0

> <Rotatable bond count [MProp:scalar:integer]>
3

> <Ring count [MProp:scalar:integer]>
1

> <Aromatic ring count [MProp:scalar:integer]>
1

> <Hetero ring count [MProp:scalar:integer]>
0

> <FSP3 [MProp:scalar:double]>
0.12

> <Hydrogen bond donor count [MProp:scalar:integer]>
2

> <Hydrogen bond acceptor count [MProp:scalar:integer]>
4

> <Formal charge [MProp:scalar:integer]>
0

> <Topological polar surface area [A^2] [MProp:scalar:double]>
92.7

> <Polarizability [A^3] [MProp:scalar:double]>
20.67

> <Molar refractivity [cm^3/mol] [MProp:scalar:double]>
52.89

> <Van der Waals volume [A^3] [MProp:scalar:double]>
183.19

> <Minimum projection area [A^2] [MProp:scalar:double]>
30.27

> <Maximum projection area [A^2] [MProp:scalar:double]>
65.56

> <Minimum projection radius [A] [MProp:scalar:double]>
3.59

> <Maximum projection radius [A] [MProp:scalar:double]>
6.72

> <Van der Waals surface area [A^2] [MProp:scalar:double]>
301.62

> <Solvent accessible surface area [A^2] [MProp:scalar:double]>
419.02

> <Strongest acidic pKa [MProp:scalar:double]>
-2.16

> <Strongest basic pKa>
N/A

> <Isoelectric point>
N/A

> <Intrinsic solubility [logS] [MProp:scalar:double]>
-1.56

> <Solubility category>
High

> <logP [MProp:scalar:double]>
0.43

> <logD_PH0 [MProp:scalar:double]>
-1.53

> <logD_PH1 [MProp:scalar:double]>
-1.88

> <logD_PH2 [MProp:scalar:double]>
-1.94

> <logD_PH3 [MProp:scalar:double]>
-1.94

> <logD_PH4 [MProp:scalar:double]>
-1.94

> <logD_PH5 [MProp:scalar:double]>
-1.94

> <logD_PH6 [MProp:scalar:double]>
-1.94

> <logD_PH7 [MProp:scalar:double]>
-1.94

> <logD_PH8 [MProp:scalar:double]>
-1.94

> <logD_PH9 [MProp:scalar:double]>
-1.94

> <logD_PH10 [MProp:scalar:double]>
-1.94

> <logD_PH11 [MProp:scalar:double]>
-1.94

> <logD_PH12 [MProp:scalar:double]>
-1.95

> <logD_PH13 [MProp:scalar:double]>
-1.95

> <logD_PH14 [MProp:scalar:double]>
-2.03

> <HLB [MProp:scalar:double]>
18.31

> <IUPAC name>
(4-acetamidophenyl)oxidanesulfonic acid

> <SMILES>
CC(=O)NC1=CC=C(OS(O)(=O)=O)C=C1

> <InChI>
InChI=1S/C8H9NO5S/c1-6(10)9-7-2-4-8(5-3-7)14-15(11,12)13/h2-5H,1H3,(H,9,10)(H,11,12,13)

> <InChIKey>
IGTYILLPRJOVFY-UHFFFAOYSA-N

> <Traditional name>
acetaminophen sulfate

> <Common names>
N-acetyl-4-aminophenol sulfate; acetaminophen sulfate; acetaminophen sulfate ester; acetaminophen sulfate ester, monopotassium salt; monopotassium salt acetaminophen sulfate ester; n-acetyl-4-aminophenol sulfate; paracetamol sulfate

> <CAS Registry Numbers(R)>
10066-90-7

$$$$
p-Benzoquinone
  Mrv2222 01232613222D          

  8  8  0  0  0  0            999 V2000
    1.4289    0.8250    0.0000 C   0  0  0  0  0  0  0  0  0  0  0  0
    1.4289    0.0000    0.0000 C   0  0  0  0  0  0  0  0  0  0  0  0
    0.7145   -0.4125    0.0000 C   0  0  0  0  0  0  0  0  0  0  0  0
    0.7145   -1.2375    0.0000 O   0  0  0  0  0  0  0  0  0  0  0  0
    0.0000    0.0000    0.0000 C   0  0  0  0  0  0  0  0  0  0  0  0
    0.0000    0.8250    0.0000 C   0  0  0  0  0  0  0  0  0  0  0  0
    0.7145    1.2375    0.0000 C   0  0  0  0  0  0  0  0  0  0  0  0
    0.7145    2.0625    0.0000 O   0  0  0  0  0  0  0  0  0  0  0  0
  1  2  2  0  0  0  0
  2  3  1  0  0  0  0
  3  4  2  0  0  0  0
  3  5  1  0  0  0  0
  5  6  2  0  0  0  0
  6  7  1  0  0  0  0
  1  7  1  0  0  0  0
  7  8  2  0  0  0  0
M  END
> <Molar mass [g/mol] [MProp:scalar:double]>
108.096

> <Exact mass [Da] [MProp:scalar:double]>
108.021129369

> <Formula>
C6H4O2

> <Composition>
C (66.67%), H (3.73%), O (29.60%)

> <Lipinski's rule of five [MProp:scalar:boolean]>
true

> <Atom count [MProp:scalar:integer]>
12

> <Heavy atom count [MProp:scalar:integer]>
8

> <Asymmetric atom count [MProp:scalar:integer]>
0

> <Rotatable bond count [MProp:scalar:integer]>
0

> <Ring count [MProp:scalar:integer]>
1

> <Aromatic ring count [MProp:scalar:integer]>
0

> <Hetero ring count [MProp:scalar:integer]>
0

> <FSP3 [MProp:scalar:double]>
0.0

> <Hydrogen bond donor count [MProp:scalar:integer]>
0

> <Hydrogen bond acceptor count [MProp:scalar:integer]>
2

> <Formal charge [MProp:scalar:integer]>
0

> <Topological polar surface area [A^2] [MProp:scalar:double]>
34.14

> <Polarizability [A^3] [MProp:scalar:double]>
10.73

> <Molar refractivity [cm^3/mol] [MProp:scalar:double]>
31.03

> <Van der Waals volume [A^3] [MProp:scalar:double]>
91.07

> <Minimum projection area [A^2] [MProp:scalar:double]>
19.3

> <Maximum projection area [A^2] [MProp:scalar:double]>
37.23

> <Minimum projection radius [A] [MProp:scalar:double]>
3.29

> <Maximum projection radius [A] [MProp:scalar:double]>
4.15

> <Van der Waals surface area [A^2] [MProp:scalar:double]>
121.33

> <Solvent accessible surface area [A^2] [MProp:scalar:double]>
198.0

> <Strongest acidic pKa>
N/A

> <Strongest basic pKa>
N/A

> <Isoelectric point>
N/A

> <Intrinsic solubility [logS] [MProp:scalar:double]>
-1.71

> <Solubility category>
High

> <logP [MProp:scalar:double]>
1.02

> <logD_PH0 [MProp:scalar:double]>
1.02

> <logD_PH1 [MProp:scalar:double]>
1.02

> <logD_PH2 [MProp:scalar:double]>
1.02

> <logD_PH3 [MProp:scalar:double]>
1.02

> <logD_PH4 [MProp:scalar:double]>
1.02

> <logD_PH5 [MProp:scalar:double]>
1.02

> <logD_PH6 [MProp:scalar:double]>
1.02

> <logD_PH7 [MProp:scalar:double]>
1.02

> <logD_PH8 [MProp:scalar:double]>
1.02

> <logD_PH9 [MProp:scalar:double]>
1.02

> <logD_PH10 [MProp:scalar:double]>
1.02

> <logD_PH11 [MProp:scalar:double]>
1.02

> <logD_PH12 [MProp:scalar:double]>
1.02

> <logD_PH13 [MProp:scalar:double]>
1.02

> <logD_PH14 [MProp:scalar:double]>
1.02

> <HLB [MProp:scalar:double]>
8.35

> <IUPAC name>
cyclohexa-2,5-diene-1,4-dione

> <SMILES>
O=C1C=CC(=O)C=C1

> <InChI>
InChI=1S/C6H4O2/c7-5-1-2-6(8)4-3-5/h1-4H

> <InChIKey>
AZQWKYJCGOJGHM-UHFFFAOYSA-N

> <Traditional name>
1,4-benzoquinone

> <Common names>
1,4-benzochinon; 1,4-cyclohexadiene dioxide; 1,4-cyclohexadienedione; 1,4-diossibenzene; benzo-1,4-quinone; benzo-chinon; caswell no. 719C; ccris 933; chinone; cyclohexadiene-1,4-dione; cyclohexadienedione; epa pesticide chemical code 059805; p-chinon; quinone1,4-benzoquinone; rcra waste number U197; semiquinone anion; semiquinone radicals; steara pbq

> <CAS Registry Numbers(R)>
106-51-4, 3225-29-4

$$$$
Propyzamide
  Mrv2222 01232613222D          

 16 16  0  0  0  0            999 V2000
   -0.8250    3.3000    0.0000 C    0  0  0  0  0  0  0  0  0  0  0  0
    0.0000    3.3000    0.0000 C    0  0  0  0  0  0  0  0  0  0  0  0
    0.8250    3.3000    0.0000 C    0  0  0  0  0  0  0  0  0  0  0  0
    0.0000    4.1250    0.0000 C    0  0  0  0  0  0  0  0  0  0  0  0
    0.0000    4.9500    0.0000 C    0  0  0  0  0  0  0  0  0  0  0  0
    0.0000    2.4750    0.0000 N    0  0  0  0  0  0  0  0  0  0  0  0
    0.7145    2.0625    0.0000 C    0  0  0  0  0  0  0  0  0  0  0  0
    1.4289    2.4750    0.0000 O    0  0  0  0  0  0  0  0  0  0  0  0
    0.7145    1.2375    0.0000 C    0  0  0  0  0  0  0  0  0  0  0  0
    1.4289    0.8250    0.0000 C    0  0  0  0  0  0  0  0  0  0  0  0
    1.4289    0.0000    0.0000 C    0  0  0  0  0  0  0  0  0  0  0  0
    0.7145   -0.4125    0.0000 C    0  0  0  0  0  0  0  0  0  0  0  0
    0.0000    0.0000    0.0000 C    0  0  0  0  0  0  0  0  0  0  0  0
    0.0000    0.8250    0.0000 C    0  0  0  0  0  0  0  0  0  0  0  0
   -0.7145   -0.4125    0.0000 Cl   0  0  0  0  0  0  0  0  0  0  0  0
    2.1434   -0.4125    0.0000 Cl   0  0  0  0  0  0  0  0  0  0  0  0
  1  2  1  0  0  0  0
  2  3  1  0  0  0  0
  2  4  1  0  0  0  0
  4  5  3  0  0  0  0
  2  6  1  0  0  0  0
  6  7  1  0  0  0  0
  7  8  2  0  0  0  0
  7  9  1  0  0  0  0
  9 10  2  0  0  0  0
 10 11  1  0  0  0  0
 11 12  2  0  0  0  0
 12 13  1  0  0  0  0
 13 14  2  0  0  0  0
  9 14  1  0  0  0  0
 13 15  1  0  0  0  0
 11 16  1  0  0  0  0
M  END
> <Molar mass [g/mol] [MProp:scalar:double]>
256.13

> <Exact mass [Da] [MProp:scalar:double]>
255.0217694

> <Formula>
C12H11Cl2NO

> <Composition>
C (56.27%), H (4.33%), Cl (27.68%), N (5.47%), O (6.25%)

> <Lipinski's rule of five [MProp:scalar:boolean]>
true

> <Atom count [MProp:scalar:integer]>
27

> <Heavy atom count [MProp:scalar:integer]>
16

> <Asymmetric atom count [MProp:scalar:integer]>
0

> <Rotatable bond count [MProp:scalar:integer]>
2

> <Ring count [MProp:scalar:integer]>
1

> <Aromatic ring count [MProp:scalar:integer]>
1

> <Hetero ring count [MProp:scalar:integer]>
0

> <FSP3 [MProp:scalar:double]>
0.25

> <Hydrogen bond donor count [MProp:scalar:integer]>
1

> <Hydrogen bond acceptor count [MProp:scalar:integer]>
1

> <Formal charge [MProp:scalar:integer]>
0

> <Topological polar surface area [A^2] [MProp:scalar:double]>
29.1

> <Polarizability [A^3] [MProp:scalar:double]>
25.04

> <Molar refractivity [cm^3/mol] [MProp:scalar:double]>
66.28

> <Van der Waals volume [A^3] [MProp:scalar:double]>
213.32

> <Minimum projection area [A^2] [MProp:scalar:double]>
40.48

> <Maximum projection area [A^2] [MProp:scalar:double]>
73.29

> <Minimum projection radius [A] [MProp:scalar:double]>
4.54

> <Maximum projection radius [A] [MProp:scalar:double]>
6.32

> <Van der Waals surface area [A^2] [MProp:scalar:double]>
328.51

> <Solvent accessible surface area [A^2] [MProp:scalar:double]>
425.58

> <Strongest acidic pKa [MProp:scalar:double]>
14.21

> <Strongest basic pKa [MProp:scalar:double]>
0.11

> <Isoelectric point [MProp:scalar:double]>
7.16

> <Intrinsic solubility [logS] [MProp:scalar:double]>
-4.66

> <Solubility category>
Low

> <logP [MProp:scalar:double]>
3.18

> <logD_PH0 [MProp:scalar:double]>
2.82

> <logD_PH1 [MProp:scalar:double]>
3.13

> <logD_PH2 [MProp:scalar:double]>
3.18

> <logD_PH3 [MProp:scalar:double]>
3.18

> <logD_PH4 [MProp:scalar:double]>
3.18

> <logD_PH5 [MProp:scalar:double]>
3.18

> <logD_PH6 [MProp:scalar:double]>
3.18

> <logD_PH7 [MProp:scalar:double]>
3.18

> <logD_PH8 [MProp:scalar:double]>
3.18

> <logD_PH9 [MProp:scalar:double]>
3.18

> <logD_PH10 [MProp:scalar:double]>
3.18

> <logD_PH11 [MProp:scalar:double]>
3.18

> <logD_PH12 [MProp:scalar:double]>
3.18

> <logD_PH13 [MProp:scalar:double]>
3.16

> <logD_PH14 [MProp:scalar:double]>
3.0

> <HLB [MProp:scalar:double]>
9.88

> <IUPAC name>
3,5-dichloro-N-(2-methylbut-3-yn-2-yl)benzamide

> <SMILES>
CC(C)(NC(=O)C1=CC(Cl)=CC(Cl)=C1)C#C

> <InChI>
InChI=1S/C12H11Cl2NO/c1-4-12(2,3)15-11(16)8-5-9(13)7-10(14)6-8/h1,5-7H,2-3H3,(H,15,16)

> <InChIKey>
PHNUZKMIPFFYSO-UHFFFAOYSA-N

> <Traditional name>
propyzamide

> <Common names>
N/A

> <CAS Registry Numbers(R)>
23950-58-5

$$$$
Ranitidine
  Mrv2222 01232613222D          

 22 21  0  0  0  0            999 V2000
   -3.4715   -1.3121    0.0000 C    0  0  0  0  0  0  0  0  0  0  0  0
   -3.4715   -0.4871    0.0000 N    0  0  0  0  0  0  0  0  0  0  0  0
   -2.7570   -0.0746    0.0000 C    0  0  0  0  0  0  0  0  0  0  0  0
   -2.7570    0.7504    0.0000 C    0  0  0  0  0  0  0  0  0  0  0  0
   -3.4715    1.1629    0.0000 N    0  3  0  0  0  0  0  0  0  0  0  0
   -3.4715    1.9879    0.0000 O    0  0  0  0  0  0  0  0  0  0  0  0
   -4.1860    0.7504    0.0000 O    0  5  0  0  0  0  0  0  0  0  0  0
   -2.0426   -0.4871    0.0000 N    0  0  0  0  0  0  0  0  0  0  0  0
   -1.3281   -0.0746    0.0000 C    0  0  0  0  0  0  0  0  0  0  0  0
   -0.6136   -0.4871    0.0000 C    0  0  0  0  0  0  0  0  0  0  0  0
    0.1009   -0.0746    0.0000 S    0  0  0  0  0  0  0  0  0  0  0  0
    0.8153   -0.4871    0.0000 C    0  0  0  0  0  0  0  0  0  0  0  0
    1.5298   -0.0746    0.0000 C    0  0  0  0  0  0  0  0  0  0  0  0
    1.6160    0.7458    0.0000 C    0  0  0  0  0  0  0  0  0  0  0  0
    2.4230    0.9174    0.0000 C    0  0  0  0  0  0  0  0  0  0  0  0
    2.8355    0.2029    0.0000 C    0  0  0  0  0  0  0  0  0  0  0  0
    2.2835   -0.4102    0.0000 O    0  0  0  0  0  0  0  0  0  0  0  0
    3.6560    0.1167    0.0000 C    0  0  0  0  0  0  0  0  0  0  0  0
    3.9915   -0.6370    0.0000 N    0  0  0  0  0  0  0  0  0  0  0  0
    4.8120   -0.7233    0.0000 C    0  0  0  0  0  0  0  0  0  0  0  0
    3.5066   -1.3045    0.0000 C    0  0  0  0  0  0  0  0  0  0  0  0
    6.8156    0.0000    0.0000 Cl   0  0  0  0  0  0  0  0  0  0  0  0
  1  2  1  0  0  0  0
  2  3  1  0  0  0  0
  3  4  2  0  0  0  0
  4  5  1  0  0  0  0
  5  6  2  0  0  0  0
  5  7  1  0  0  0  0
  3  8  1  0  0  0  0
  8  9  1  0  0  0  0
  9 10  1  0  0  0  0
 10 11  1  0  0  0  0
 11 12  1  0  0  0  0
 12 13  1  0  0  0  0
 13 14  2  0  0  0  0
 14 15  1  0  0  0  0
 15 16  2  0  0  0  0
 16 17  1  0  0  0  0
 13 17  1  0  0  0  0
 16 18  1  0  0  0  0
 18 19  1  0  0  0  0
 19 20  1  0  0  0  0
 19 21  1  0  0  0  0
M  END
> <Molar mass [g/mol] [MProp:scalar:double]>
350.86

> <Exact mass [Da] [MProp:scalar:double]>
350.1179395

> <Formula>
C13H23ClN4O3S

> <Composition>
C (44.50%), H (6.61%), Cl (10.10%), N (15.97%), O (13.68%), S (9.14%)

> <Lipinski's rule of five [MProp:scalar:boolean]>
true

> <Atom count [MProp:scalar:integer]>
45

> <Heavy atom count [MProp:scalar:integer]>
22

> <Asymmetric atom count [MProp:scalar:integer]>
0

> <Rotatable bond count [MProp:scalar:integer]>
10

> <Ring count [MProp:scalar:integer]>
1

> <Aromatic ring count [MProp:scalar:integer]>
1

> <Hetero ring count [MProp:scalar:integer]>
1

> <FSP3 [MProp:scalar:double]>
0.54

> <Hydrogen bond donor count [MProp:scalar:integer]>
2

> <Hydrogen bond acceptor count [MProp:scalar:integer]>
5

> <Formal charge [MProp:scalar:integer]>
0

> <Topological polar surface area [A^2] [MProp:scalar:double]>
83.58

> <Polarizability [A^3] [MProp:scalar:double]>
32.32

> <Molar refractivity [cm^3/mol] [MProp:scalar:double]>
94.15

> <Van der Waals volume [A^3] [MProp:scalar:double]>
286.17

> <Minimum projection area [A^2] [MProp:scalar:double]>
53.72

> <Maximum projection area [A^2] [MProp:scalar:double]>
89.7

> <Minimum projection radius [A] [MProp:scalar:double]>
5.33

> <Maximum projection radius [A] [MProp:scalar:double]>
8.36

> <Van der Waals surface area [A^2] [MProp:scalar:double]>
485.35

> <Solvent accessible surface area [A^2] [MProp:scalar:double]>
640.94

> <Strongest acidic pKa>
N/A

> <Strongest basic pKa [MProp:scalar:double]>
8.3

> <Isoelectric point>
N/A

> <Intrinsic solubility [logS] [MProp:scalar:double]>
-2.87

> <Solubility category>
High

> <logP [MProp:scalar:double]>
0.99

> <logD_PH0 [MProp:scalar:double]>
-3.11

> <logD_PH1 [MProp:scalar:double]>
-2.62

> <logD_PH2 [MProp:scalar:double]>
-2.52

> <logD_PH3 [MProp:scalar:double]>
-2.5

> <logD_PH4 [MProp:scalar:double]>
-2.45

> <logD_PH5 [MProp:scalar:double]>
-2.1

> <logD_PH6 [MProp:scalar:double]>
-1.28

> <logD_PH7 [MProp:scalar:double]>
-0.32

> <logD_PH8 [MProp:scalar:double]>
0.52

> <logD_PH9 [MProp:scalar:double]>
0.91

> <logD_PH10 [MProp:scalar:double]>
0.98

> <logD_PH11 [MProp:scalar:double]>
0.99

> <logD_PH12 [MProp:scalar:double]>
0.99

> <logD_PH13 [MProp:scalar:double]>
0.99

> <logD_PH14 [MProp:scalar:double]>
0.99

> <HLB [MProp:scalar:double]>
34.15

> <IUPAC name>
dimethyl[(5-{[(2-{[(1E)-1-(methylamino)-2-nitroethenyl]amino}ethyl)sulfanyl]methyl}furan-2-yl)methyl]amine hydrochloride

> <SMILES>
Cl.CN\C(NCCSCC1=CC=C(CN(C)C)O1)=C/[N+]([O-])=O

> <InChI>
InChI=1S/C13H22N4O3S.ClH/c1-14-13(9-17(18)19)15-6-7-21-10-12-5-4-11(20-12)8-16(2)3;/h4-5,9,14-15H,6-8,10H2,1-3H3;1H/b13-9+;

> <InChIKey>
GGWBHVILAJZWKJ-KJEVSKRMSA-N

> <Traditional name>
ranitidine hydrochloride

> <Common names>
N/A

> <CAS Registry Numbers(R)>
66357-59-3, 71130-06-8

$$$$
Salicylicacid
  Mrv2222 01232613222D          

 10 10  0  0  0  0            999 V2000
    1.4289    0.0000    0.0000 C   0  0  0  0  0  0  0  0  0  0  0  0
    0.7145   -0.4125    0.0000 C   0  0  0  0  0  0  0  0  0  0  0  0
    0.0000    0.0000    0.0000 C   0  0  0  0  0  0  0  0  0  0  0  0
    0.0000    0.8250    0.0000 C   0  0  0  0  0  0  0  0  0  0  0  0
    0.7145    1.2375    0.0000 C   0  0  0  0  0  0  0  0  0  0  0  0
    1.4289    0.8250    0.0000 C   0  0  0  0  0  0  0  0  0  0  0  0
    0.7145    2.0625    0.0000 C   0  0  0  0  0  0  0  0  0  0  0  0
    0.0000    2.4750    0.0000 O   0  0  0  0  0  0  0  0  0  0  0  0
    1.4289    2.4750    0.0000 O   0  0  0  0  0  0  0  0  0  0  0  0
   -0.7145    1.2375    0.0000 O   0  0  0  0  0  0  0  0  0  0  0  0
  1  2  2  0  0  0  0
  2  3  1  0  0  0  0
  3  4  2  0  0  0  0
  4  5  1  0  0  0  0
  5  6  2  0  0  0  0
  1  6  1  0  0  0  0
  5  7  1  0  0  0  0
  7  8  2  0  0  0  0
  7  9  1  0  0  0  0
  4 10  1  0  0  0  0
M  END
> <Molar mass [g/mol] [MProp:scalar:double]>
138.122

> <Exact mass [Da] [MProp:scalar:double]>
138.031694053

> <Formula>
C7H6O3

> <Composition>
C (60.87%), H (4.38%), O (34.75%)

> <Lipinski's rule of five [MProp:scalar:boolean]>
true

> <Atom count [MProp:scalar:integer]>
16

> <Heavy atom count [MProp:scalar:integer]>
10

> <Asymmetric atom count [MProp:scalar:integer]>
0

> <Rotatable bond count [MProp:scalar:integer]>
1

> <Ring count [MProp:scalar:integer]>
1

> <Aromatic ring count [MProp:scalar:integer]>
1

> <Hetero ring count [MProp:scalar:integer]>
0

> <FSP3 [MProp:scalar:double]>
0.0

> <Hydrogen bond donor count [MProp:scalar:integer]>
2

> <Hydrogen bond acceptor count [MProp:scalar:integer]>
3

> <Formal charge [MProp:scalar:integer]>
0

> <Topological polar surface area [A^2] [MProp:scalar:double]>
57.53

> <Polarizability [A^3] [MProp:scalar:double]>
13.3

> <Molar refractivity [cm^3/mol] [MProp:scalar:double]>
35.3

> <Van der Waals volume [A^3] [MProp:scalar:double]>
118.27

> <Minimum projection area [A^2] [MProp:scalar:double]>
24.29

> <Maximum projection area [A^2] [MProp:scalar:double]>
47.0

> <Minimum projection radius [A] [MProp:scalar:double]>
3.74

> <Maximum projection radius [A] [MProp:scalar:double]>
4.71

> <Van der Waals surface area [A^2] [MProp:scalar:double]>
182.25

> <Solvent accessible surface area [A^2] [MProp:scalar:double]>
283.96

> <Strongest acidic pKa [MProp:scalar:double]>
2.79

> <Strongest basic pKa>
N/A

> <Isoelectric point>
N/A

> <Intrinsic solubility [logS] [MProp:scalar:double]>
-1.07

> <Solubility category>
High

> <logP [MProp:scalar:double]>
1.98

> <logD_PH0 [MProp:scalar:double]>
1.98

> <logD_PH1 [MProp:scalar:double]>
1.97

> <logD_PH2 [MProp:scalar:double]>
1.91

> <logD_PH3 [MProp:scalar:double]>
1.56

> <logD_PH4 [MProp:scalar:double]>
0.74

> <logD_PH5 [MProp:scalar:double]>
-0.22

> <logD_PH6 [MProp:scalar:double]>
-1.06

> <logD_PH7 [MProp:scalar:double]>
-1.47

> <logD_PH8 [MProp:scalar:double]>
-1.54

> <logD_PH9 [MProp:scalar:double]>
-1.55

> <logD_PH10 [MProp:scalar:double]>
-1.55

> <logD_PH11 [MProp:scalar:double]>
-1.55

> <logD_PH12 [MProp:scalar:double]>
-1.58

> <logD_PH13 [MProp:scalar:double]>
-1.75

> <logD_PH14 [MProp:scalar:double]>
-2.37

> <HLB [MProp:scalar:double]>
9.88

> <IUPAC name>
2-hydroxybenzoic acid

> <SMILES>
OC(=O)C1=CC=CC=C1O

> <InChI>
InChI=1S/C7H6O3/c8-6-4-2-1-3-5(6)7(9)10/h1-4,8H,(H,9,10)

> <InChIKey>
YGSDEFSMJLZEOE-UHFFFAOYSA-N

> <Traditional name>
salicyclic acid

> <Common names>
2 hydroxybenzoic acid; O-carboxyphenol; O-hydroxybenzoic acid; P&S shampoo; SAX; acid, 2-hydroxybenzoic; acid, o-hydroxybenzoic; acid, ortho-hydroxybenzoic; acid, salicylic; acido o-idrossibenzoico; acido salicilico; acidum salicylicum; advanced pain relief callus removers; advanced pain relief corn removers; akurza cream; akurza lotion; benzoic acid, 2-hydroxy- (10); caswell no. 731; clear away wart remover; dhs sal shampoo; dr. scholl callus removers; dr. scholl corn removers; dr. scholl wart remover kit; dr. scholl's callus removers; dr. scholl's corn removers; dr. scholl's wart remover kit; duofil wart remover; duoplant; duoplant gel; epa pesticide chemical code 076602; freezone; hydrisalic gel; ionil; ionil plus; keralyt; kyselina 2-hydroxybenzoova; kyselina salicylova; medical uses of salicylic acid; mediplast pads; o hydroxybenzoic acid; propa ph peel-off acne mask; psoriacid-S-stift; psoriacid-s-stift; retarder W; retarder sax; rutranex; sa - salicylic acid; salex cream; salex lotion; salicylic; salicylic acid (product); salicylic acid (substance); salicylic acid collodion; salicylic acid preparation; salicylic acid product; salicylic acid soap; salicylic acid, tech.; salicylic preparation; saligel; salonil; stri-dex; tech. salicylic acid; trans-ver-sal; verrugon

> <CAS Registry Numbers(R)>
69-72-7, 29656-58-4

$$$$
Schradan
  Mrv2222 01232613222D          

 17 16  0  0  0  0            999 V2000
   -0.1914   -3.1895    0.0000 C   0  0  0  0  0  0  0  0  0  0  0  0
    0.5230   -2.7770    0.0000 N   0  0  0  0  0  0  0  0  0  0  0  0
    1.2375   -3.1895    0.0000 C   0  0  0  0  0  0  0  0  0  0  0  0
    0.5230   -1.9520    0.0000 P   0  0  0  0  0  0  0  0  0  0  0  0
    1.3480   -1.9520    0.0000 O   0  0  0  0  0  0  0  0  0  0  0  0
   -0.3020   -1.9520    0.0000 N   0  0  0  0  0  0  0  0  0  0  0  0
   -0.7145   -1.2375    0.0000 C   0  0  0  0  0  0  0  0  0  0  0  0
   -0.7145   -2.6664    0.0000 C   0  0  0  0  0  0  0  0  0  0  0  0
    0.5230   -1.1270    0.0000 O   0  0  0  0  0  0  0  0  0  0  0  0
    1.2375   -0.7145    0.0000 P   0  0  0  0  0  0  0  0  0  0  0  0
    1.6500   -1.4289    0.0000 O   0  0  0  0  0  0  0  0  0  0  0  0
    1.9520   -0.3020    0.0000 N   0  0  0  0  0  0  0  0  0  0  0  0
    1.9520    0.5230    0.0000 C   0  0  0  0  0  0  0  0  0  0  0  0
    2.6664   -0.7145    0.0000 C   0  0  0  0  0  0  0  0  0  0  0  0
    0.8250    0.0000    0.0000 N   0  0  0  0  0  0  0  0  0  0  0  0
    1.2375    0.7145    0.0000 C   0  0  0  0  0  0  0  0  0  0  0  0
    0.0000    0.0000    0.0000 C   0  0  0  0  0  0  0  0  0  0  0  0
  1  2  1  0  0  0  0
  2  3  1  0  0  0  0
  2  4  1  0  0  0  0
  4  5  2  0  0  0  0
  4  6  1  0  0  0  0
  6  7  1  0  0  0  0
  6  8  1  0  0  0  0
  4  9  1  0  0  0  0
  9 10  1  0  0  0  0
 10 11  2  0  0  0  0
 10 12  1  0  0  0  0
 12 13  1  0  0  0  0
 12 14  1  0  0  0  0
 10 15  1  0  0  0  0
 15 16  1  0  0  0  0
 15 17  1  0  0  0  0
M  END
> <Molar mass [g/mol] [MProp:scalar:double]>
286.253

> <Exact mass [Da] [MProp:scalar:double]>
286.132364645

> <Formula>
C8H24N4O3P2

> <Composition>
C (33.57%), H (8.45%), N (19.57%), O (16.77%), P (21.64%)

> <Lipinski's rule of five [MProp:scalar:boolean]>
true

> <Atom count [MProp:scalar:integer]>
41

> <Heavy atom count [MProp:scalar:integer]>
17

> <Asymmetric atom count [MProp:scalar:integer]>
0

> <Rotatable bond count [MProp:scalar:integer]>
6

> <Ring count [MProp:scalar:integer]>
0

> <Aromatic ring count [MProp:scalar:integer]>
0

> <Hetero ring count [MProp:scalar:integer]>
0

> <FSP3 [MProp:scalar:double]>
1.0

> <Hydrogen bond donor count [MProp:scalar:integer]>
0

> <Hydrogen bond acceptor count [MProp:scalar:integer]>
2

> <Formal charge [MProp:scalar:integer]>
0

> <Topological polar surface area [A^2] [MProp:scalar:double]>
56.33

> <Polarizability [A^3] [MProp:scalar:double]>
27.42

> <Molar refractivity [cm^3/mol] [MProp:scalar:double]>
70.84

> <Van der Waals volume [A^3] [MProp:scalar:double]>
263.44

> <Minimum projection area [A^2] [MProp:scalar:double]>
53.17

> <Maximum projection area [A^2] [MProp:scalar:double]>
65.58

> <Minimum projection radius [A] [MProp:scalar:double]>
4.5

> <Maximum projection radius [A] [MProp:scalar:double]>
5.43

> <Van der Waals surface area [A^2] [MProp:scalar:double]>
475.64

> <Solvent accessible surface area [A^2] [MProp:scalar:double]>
441.44

> <Strongest acidic pKa>
N/A

> <Strongest basic pKa>
N/A

> <Isoelectric point>
N/A

> <Intrinsic solubility [logS] [MProp:scalar:double]>
1.75

> <Solubility category>
High

> <logP [MProp:scalar:double]>
-1.95

> <logD_PH0 [MProp:scalar:double]>
-1.95

> <logD_PH1 [MProp:scalar:double]>
-1.95

> <logD_PH2 [MProp:scalar:double]>
-1.95

> <logD_PH3 [MProp:scalar:double]>
-1.95

> <logD_PH4 [MProp:scalar:double]>
-1.95

> <logD_PH5 [MProp:scalar:double]>
-1.95

> <logD_PH6 [MProp:scalar:double]>
-1.95

> <logD_PH7 [MProp:scalar:double]>
-1.95

> <logD_PH8 [MProp:scalar:double]>
-1.95

> <logD_PH9 [MProp:scalar:double]>
-1.95

> <logD_PH10 [MProp:scalar:double]>
-1.95

> <logD_PH11 [MProp:scalar:double]>
-1.95

> <logD_PH12 [MProp:scalar:double]>
-1.95

> <logD_PH13 [MProp:scalar:double]>
-1.95

> <logD_PH14 [MProp:scalar:double]>
-1.95

> <HLB [MProp:scalar:double]>
15.56

> <IUPAC name>
({[bis(dimethylamino)phosphoryl]oxy}(dimethylamino)phosphoryl)dimethylamine

> <SMILES>
CN(C)P(=O)(OP(=O)(N(C)C)N(C)C)N(C)C

> <InChI>
InChI=1S/C8H24N4O3P2/c1-9(2)16(13,10(3)4)15-17(14,11(5)6)12(7)8/h1-8H3

> <InChIKey>
SZKKRCSOSQAJDE-UHFFFAOYSA-N

> <Traditional name>
octamethylpyrophosphoramide

> <Common names>
OMPA; octamethylpyrophosphoramide; schradan; 八甲磷胺

> <CAS Registry Numbers(R)>
152-16-9

$$$$
Sertraline
  Mrv2222 01232613222D          

 20 22  0  0  1  0            999 V2000
    2.1434   -2.8875    0.0000 C    0  0  0  0  0  0  0  0  0  0  0  0
    1.4289   -2.4750    0.0000 N    0  0  0  0  0  0  0  0  0  0  0  0
    1.4289   -1.6500    0.0000 C    0  0  1  0  0  0  0  0  0  0  0  0
    0.7145   -1.2375    0.0000 C    0  0  0  0  0  0  0  0  0  0  0  0
    0.7145   -0.4125    0.0000 C    0  0  0  0  0  0  0  0  0  0  0  0
    1.4289    0.0000    0.0000 C    0  0  2  0  0  0  0  0  0  0  0  0
    2.1434   -0.4125    0.0000 C    0  0  0  0  0  0  0  0  0  0  0  0
    2.8579    0.0000    0.0000 C    0  0  0  0  0  0  0  0  0  0  0  0
    3.5724   -0.4125    0.0000 C    0  0  0  0  0  0  0  0  0  0  0  0
    3.5724   -1.2375    0.0000 C    0  0  0  0  0  0  0  0  0  0  0  0
    2.8579   -1.6500    0.0000 C    0  0  0  0  0  0  0  0  0  0  0  0
    2.1434   -1.2375    0.0000 C    0  0  0  0  0  0  0  0  0  0  0  0
    1.4289    0.8250    0.0000 C    0  0  0  0  0  0  0  0  0  0  0  0
    0.7145    1.2375    0.0000 C    0  0  0  0  0  0  0  0  0  0  0  0
    0.7145    2.0625    0.0000 C    0  0  0  0  0  0  0  0  0  0  0  0
    1.4289    2.4750    0.0000 C    0  0  0  0  0  0  0  0  0  0  0  0
    2.1434    2.0625    0.0000 C    0  0  0  0  0  0  0  0  0  0  0  0
    2.1434    1.2375    0.0000 C    0  0  0  0  0  0  0  0  0  0  0  0
    1.4289    3.3000    0.0000 Cl   0  0  0  0  0  0  0  0  0  0  0  0
    0.0000    2.4750    0.0000 Cl   0  0  0  0  0  0  0  0  0  0  0  0
  1  2  1  0  0  0  0
  3  2  1  1  0  0  0
  3  4  1  0  0  0  0
  4  5  1  0  0  0  0
  6  5  1  0  0  0  0
  6  7  1  0  0  0  0
  7  8  2  0  0  0  0
  8  9  1  0  0  0  0
  9 10  2  0  0  0  0
 10 11  1  0  0  0  0
 11 12  2  0  0  0  0
  3 12  1  0  0  0  0
  7 12  1  0  0  0  0
  6 13  1  1  0  0  0
 13 14  2  0  0  0  0
 14 15  1  0  0  0  0
 15 16  2  0  0  0  0
 16 17  1  0  0  0  0
 17 18  2  0  0  0  0
 13 18  1  0  0  0  0
 16 19  1  0  0  0  0
 15 20  1  0  0  0  0
M  END
> <Molar mass [g/mol] [MProp:scalar:double]>
306.23

> <Exact mass [Da] [MProp:scalar:double]>
305.073805

> <Formula>
C17H17Cl2N

> <Composition>
C (66.68%), H (5.60%), Cl (23.15%), N (4.57%)

> <Lipinski's rule of five [MProp:scalar:boolean]>
false

> <Atom count [MProp:scalar:integer]>
37

> <Heavy atom count [MProp:scalar:integer]>
20

> <Asymmetric atom count [MProp:scalar:integer]>
2

> <Rotatable bond count [MProp:scalar:integer]>
2

> <Ring count [MProp:scalar:integer]>
3

> <Aromatic ring count [MProp:scalar:integer]>
2

> <Hetero ring count [MProp:scalar:integer]>
0

> <FSP3 [MProp:scalar:double]>
0.29

> <Hydrogen bond donor count [MProp:scalar:integer]>
1

> <Hydrogen bond acceptor count [MProp:scalar:integer]>
1

> <Formal charge [MProp:scalar:integer]>
0

> <Topological polar surface area [A^2] [MProp:scalar:double]>
12.03

> <Polarizability [A^3] [MProp:scalar:double]>
33.6

> <Molar refractivity [cm^3/mol] [MProp:scalar:double]>
85.74

> <Van der Waals volume [A^3] [MProp:scalar:double]>
266.8

> <Minimum projection area [A^2] [MProp:scalar:double]>
50.36

> <Maximum projection area [A^2] [MProp:scalar:double]>
75.5

> <Minimum projection radius [A] [MProp:scalar:double]>
4.65

> <Maximum projection radius [A] [MProp:scalar:double]>
6.21

> <Van der Waals surface area [A^2] [MProp:scalar:double]>
417.68

> <Solvent accessible surface area [A^2] [MProp:scalar:double]>
436.02

> <Strongest acidic pKa>
N/A

> <Strongest basic pKa [MProp:scalar:double]>
9.56

> <Isoelectric point>
N/A

> <Intrinsic solubility [logS] [MProp:scalar:double]>
-4.85

> <Solubility category>
Low

> <logP [MProp:scalar:double]>
5.15

> <logD_PH0 [MProp:scalar:double]>
1.91

> <logD_PH1 [MProp:scalar:double]>
1.91

> <logD_PH2 [MProp:scalar:double]>
1.91

> <logD_PH3 [MProp:scalar:double]>
1.91

> <logD_PH4 [MProp:scalar:double]>
1.91

> <logD_PH5 [MProp:scalar:double]>
1.93

> <logD_PH6 [MProp:scalar:double]>
2.08

> <logD_PH7 [MProp:scalar:double]>
2.67

> <logD_PH8 [MProp:scalar:double]>
3.58

> <logD_PH9 [MProp:scalar:double]>
4.48

> <logD_PH10 [MProp:scalar:double]>
5.01

> <logD_PH11 [MProp:scalar:double]>
5.13

> <logD_PH12 [MProp:scalar:double]>
5.15

> <logD_PH13 [MProp:scalar:double]>
5.15

> <logD_PH14 [MProp:scalar:double]>
5.15

> <HLB [MProp:scalar:double]>
8.15

> <IUPAC name>
(1S,4S)-4-(3,4-dichlorophenyl)-N-methyl-1,2,3,4-tetrahydronaphthalen-1-amine

> <SMILES>
CN[C@H]1CC[C@@H](C2=CC(Cl)=C(Cl)C=C2)C2=CC=CC=C12

> <InChI>
InChI=1S/C17H17Cl2N/c1-20-17-9-7-12(13-4-2-3-5-14(13)17)11-6-8-15(18)16(19)10-11/h2-6,8,10,12,17,20H,7,9H2,1H3/t12-,17-/m0/s1

> <InChIKey>
VGKDLMBJGBXTGI-SJCJKPOMSA-N

> <Traditional name>
sertraline

> <Common names>
(+)-sertraline; (1S,4S)-sertraline; altruline; apo sertraline; apo-sertraline; apotex brand of sertraline hydrochloride; aremis; besitran; cis-(+)-sertraline; esteve brand of sertraline hydrochloride; gen sertraline; gen-sertraline; genpharm brand of sertraline hydrochloride; gladem; hydrochloride, sertraline; lacer brand of sertraline hydrochloride; novo sertraline; novo-sertraline; novopharm brand of sertraline hydrochloride; parke davis brand of sertraline hydrochloride; pfizer brand of sertraline hydrochloride; ratio sertraline; ratio-sertraline; ratiopharm brand of sertraline hydrochloride; rhoxal sertraline; rhoxal-sertraline; rhoxalpharma brand of sertraline hydrochloride; roerig brand of sertraline hydrochloride; sealdin; sertralina; sertraline; sertraline (product); sertraline (substance); sertraline hydrochloride (product); sertraline hydrochloride (substance); sertraline hydrochloride preparation; sertraline preparation; sertralinum; sultamicillin tosylate

> <CAS Registry Numbers(R)>
79617-96-2, 79617-95-1, 219736-80-8

$$$$
Simazine
  Mrv2222 01232613222D          

 13 13  0  0  0  0            999 V2000
    0.0000    3.3000    0.0000 C    0  0  0  0  0  0  0  0  0  0  0  0
    0.0000    2.4750    0.0000 C    0  0  0  0  0  0  0  0  0  0  0  0
    0.7145    2.0625    0.0000 N    0  0  0  0  0  0  0  0  0  0  0  0
    0.7145    1.2375    0.0000 C    0  0  0  0  0  0  0  0  0  0  0  0
    1.4289    0.8250    0.0000 N    0  0  0  0  0  0  0  0  0  0  0  0
    1.4289    0.0000    0.0000 C    0  0  0  0  0  0  0  0  0  0  0  0
    0.7145   -0.4125    0.0000 N    0  0  0  0  0  0  0  0  0  0  0  0
    0.0000    0.0000    0.0000 C    0  0  0  0  0  0  0  0  0  0  0  0
    0.0000    0.8250    0.0000 N    0  0  0  0  0  0  0  0  0  0  0  0
   -0.7145   -0.4125    0.0000 Cl   0  0  0  0  0  0  0  0  0  0  0  0
    2.1434   -0.4125    0.0000 N    0  0  0  0  0  0  0  0  0  0  0  0
    2.1434   -1.2375    0.0000 C    0  0  0  0  0  0  0  0  0  0  0  0
    2.8579   -1.6500    0.0000 C    0  0  0  0  0  0  0  0  0  0  0  0
  1  2  1  0  0  0  0
  2  3  1  0  0  0  0
  3  4  1  0  0  0  0
  4  5  2  0  0  0  0
  5  6  1  0  0  0  0
  6  7  2  0  0  0  0
  7  8  1  0  0  0  0
  8  9  2  0  0  0  0
  4  9  1  0  0  0  0
  8 10  1  0  0  0  0
  6 11  1  0  0  0  0
 11 12  1  0  0  0  0
 12 13  1  0  0  0  0
M  END
> <Molar mass [g/mol] [MProp:scalar:double]>
201.66

> <Exact mass [Da] [MProp:scalar:double]>
201.0781231

> <Formula>
C7H12ClN5

> <Composition>
C (41.69%), H (6.00%), Cl (17.58%), N (34.73%)

> <Lipinski's rule of five [MProp:scalar:boolean]>
true

> <Atom count [MProp:scalar:integer]>
25

> <Heavy atom count [MProp:scalar:integer]>
13

> <Asymmetric atom count [MProp:scalar:integer]>
0

> <Rotatable bond count [MProp:scalar:integer]>
4

> <Ring count [MProp:scalar:integer]>
1

> <Aromatic ring count [MProp:scalar:integer]>
1

> <Hetero ring count [MProp:scalar:integer]>
1

> <FSP3 [MProp:scalar:double]>
0.57

> <Hydrogen bond donor count [MProp:scalar:integer]>
2

> <Hydrogen bond acceptor count [MProp:scalar:integer]>
5

> <Formal charge [MProp:scalar:integer]>
0

> <Topological polar surface area [A^2] [MProp:scalar:double]>
62.73

> <Polarizability [A^3] [MProp:scalar:double]>
19.37

> <Molar refractivity [cm^3/mol] [MProp:scalar:double]>
57.8

> <Van der Waals volume [A^3] [MProp:scalar:double]>
173.94

> <Minimum projection area [A^2] [MProp:scalar:double]>
35.69

> <Maximum projection area [A^2] [MProp:scalar:double]>
64.55

> <Minimum projection radius [A] [MProp:scalar:double]>
4.9

> <Maximum projection radius [A] [MProp:scalar:double]>
6.28

> <Van der Waals surface area [A^2] [MProp:scalar:double]>
294.95

> <Solvent accessible surface area [A^2] [MProp:scalar:double]>
454.65

> <Strongest acidic pKa [MProp:scalar:double]>
14.75

> <Strongest basic pKa [MProp:scalar:double]>
4.23

> <Isoelectric point [MProp:scalar:double]>
9.38

> <Intrinsic solubility [logS] [MProp:scalar:double]>
-3.45

> <Solubility category>
High

> <logP [MProp:scalar:double]>
1.78

> <logD_PH0 [MProp:scalar:double]>
-0.18

> <logD_PH1 [MProp:scalar:double]>
-0.16

> <logD_PH2 [MProp:scalar:double]>
0.0

> <logD_PH3 [MProp:scalar:double]>
0.6

> <logD_PH4 [MProp:scalar:double]>
1.36

> <logD_PH5 [MProp:scalar:double]>
1.71

> <logD_PH6 [MProp:scalar:double]>
1.77

> <logD_PH7 [MProp:scalar:double]>
1.78

> <logD_PH8 [MProp:scalar:double]>
1.78

> <logD_PH9 [MProp:scalar:double]>
1.78

> <logD_PH10 [MProp:scalar:double]>
1.78

> <logD_PH11 [MProp:scalar:double]>
1.78

> <logD_PH12 [MProp:scalar:double]>
1.78

> <logD_PH13 [MProp:scalar:double]>
1.77

> <logD_PH14 [MProp:scalar:double]>
1.71

> <HLB [MProp:scalar:double]>
7.96

> <IUPAC name>
6-chloro-N2,N4-diethyl-1,3,5-triazine-2,4-diamine

> <SMILES>
CCNC1=NC(NCC)=NC(Cl)=N1

> <InChI>
InChI=1S/C7H12ClN5/c1-3-9-6-11-5(8)12-7(13-6)10-4-2/h3-4H2,1-2H3,(H2,9,10,11,12,13)

> <InChIKey>
ODCWYMIRDDJXKW-UHFFFAOYSA-N

> <Traditional name>
simazine

> <Common names>
C7H12ClN5; CDT; aktinit S; amizine; aquazine; azotop; batazina; batazine flo; bitemol; bitemol S 50; caswell no. 740; cat (herbicide); cekusan; cekusima; cekuzina-S; epa pesticide chemical code 080807; gesapun; gesaran; gesatop; gesatop 50; herbatoxol S; herbazin; herbazin 50; herbazin-50; herbazin50; herbex; herbex (pesticide); herboxy; hungazin DT; premazine; primatel S; primatol S; princep; printop; radocon; radokor; simadex; simanex; simatsin-neste; simazin; simazine; simazine (substance); simazine 80W; symazine; tafazine; tafazine 50-W; taphazine; triazine A 384; yrodazin; zeapur

> <CAS Registry Numbers(R)>
122-34-9

$$$$
Sitagliptin
  Mrv2222 01232613222D          

 28 30  0  0  1  0            999 V2000
    0.7145   -0.4125    0.0000 C   0  0  0  0  0  0  0  0  0  0  0  0
    0.0000    0.0000    0.0000 C   0  0  0  0  0  0  0  0  0  0  0  0
    0.0000    0.8250    0.0000 N   0  0  0  0  0  0  0  0  0  0  0  0
    0.7145    1.2375    0.0000 C   0  0  0  0  0  0  0  0  0  0  0  0
    0.5429    2.0445    0.0000 N   0  0  0  0  0  0  0  0  0  0  0  0
   -0.2775    2.1307    0.0000 N   0  0  0  0  0  0  0  0  0  0  0  0
   -0.6131    1.3770    0.0000 C   0  0  0  0  0  0  0  0  0  0  0  0
   -1.4201    1.2055    0.0000 C   0  0  0  0  0  0  0  0  0  0  0  0
   -2.2270    1.0340    0.0000 F   0  0  0  0  0  0  0  0  0  0  0  0
   -1.2485    0.3985    0.0000 F   0  0  0  0  0  0  0  0  0  0  0  0
   -1.5916    2.0125    0.0000 F   0  0  0  0  0  0  0  0  0  0  0  0
    1.4289    0.8250    0.0000 C   0  0  0  0  0  0  0  0  0  0  0  0
    1.4289    0.0000    0.0000 N   0  0  0  0  0  0  0  0  0  0  0  0
    2.1434   -0.4125    0.0000 C   0  0  0  0  0  0  0  0  0  0  0  0
    2.1434   -1.2375    0.0000 O   0  0  0  0  0  0  0  0  0  0  0  0
    2.8579    0.0000    0.0000 C   0  0  0  0  0  0  0  0  0  0  0  0
    3.5724   -0.4125    0.0000 C   0  0  1  0  0  0  0  0  0  0  0  0
    4.2868    0.0000    0.0000 C   0  0  0  0  0  0  0  0  0  0  0  0
    5.0013   -0.4125    0.0000 C   0  0  0  0  0  0  0  0  0  0  0  0
    5.7158    0.0000    0.0000 C   0  0  0  0  0  0  0  0  0  0  0  0
    6.4302   -0.4125    0.0000 C   0  0  0  0  0  0  0  0  0  0  0  0
    6.4302   -1.2375    0.0000 C   0  0  0  0  0  0  0  0  0  0  0  0
    5.7158   -1.6500    0.0000 C   0  0  0  0  0  0  0  0  0  0  0  0
    5.0013   -1.2375    0.0000 C   0  0  0  0  0  0  0  0  0  0  0  0
    4.2868   -1.6500    0.0000 F   0  0  0  0  0  0  0  0  0  0  0  0
    7.1447   -1.6500    0.0000 F   0  0  0  0  0  0  0  0  0  0  0  0
    7.1447    0.0000    0.0000 F   0  0  0  0  0  0  0  0  0  0  0  0
    3.5724   -1.2375    0.0000 N   0  0  0  0  0  0  0  0  0  0  0  0
  1  2  1  0  0  0  0
  2  3  1  0  0  0  0
  3  4  1  0  0  0  0
  4  5  2  0  0  0  0
  5  6  1  0  0  0  0
  6  7  2  0  0  0  0
  3  7  1  0  0  0  0
  7  8  1  0  0  0  0
  8  9  1  0  0  0  0
  8 10  1  0  0  0  0
  8 11  1  0  0  0  0
  4 12  1  0  0  0  0
 12 13  1  0  0  0  0
  1 13  1  0  0  0  0
 13 14  1  0  0  0  0
 14 15  2  0  0  0  0
 14 16  1  0  0  0  0
 17 16  1  0  0  0  0
 17 18  1  0  0  0  0
 18 19  1  0  0  0  0
 19 20  2  0  0  0  0
 20 21  1  0  0  0  0
 21 22  2  0  0  0  0
 22 23  1  0  0  0  0
 23 24  2  0  0  0  0
 19 24  1  0  0  0  0
 24 25  1  0  0  0  0
 22 26  1  0  0  0  0
 21 27  1  0  0  0  0
 17 28  1  1  0  0  0
M  END
> <Molar mass [g/mol] [MProp:scalar:double]>
407.32

> <Exact mass [Da] [MProp:scalar:double]>
407.118079101

> <Formula>
C16H15F6N5O

> <Composition>
C (47.18%), H (3.71%), F (27.99%), N (17.19%), O (3.93%)

> <Lipinski's rule of five [MProp:scalar:boolean]>
true

> <Atom count [MProp:scalar:integer]>
43

> <Heavy atom count [MProp:scalar:integer]>
28

> <Asymmetric atom count [MProp:scalar:integer]>
1

> <Rotatable bond count [MProp:scalar:integer]>
5

> <Ring count [MProp:scalar:integer]>
3

> <Aromatic ring count [MProp:scalar:integer]>
2

> <Hetero ring count [MProp:scalar:integer]>
2

> <FSP3 [MProp:scalar:double]>
0.44

> <Hydrogen bond donor count [MProp:scalar:integer]>
1

> <Hydrogen bond acceptor count [MProp:scalar:integer]>
4

> <Formal charge [MProp:scalar:integer]>
0

> <Topological polar surface area [A^2] [MProp:scalar:double]>
77.04

> <Polarizability [A^3] [MProp:scalar:double]>
31.48

> <Molar refractivity [cm^3/mol] [MProp:scalar:double]>
87.49

> <Van der Waals volume [A^3] [MProp:scalar:double]>
308.71

> <Minimum projection area [A^2] [MProp:scalar:double]>
41.25

> <Maximum projection area [A^2] [MProp:scalar:double]>
95.09

> <Minimum projection radius [A] [MProp:scalar:double]>
4.26

> <Maximum projection radius [A] [MProp:scalar:double]>
9.7

> <Van der Waals surface area [A^2] [MProp:scalar:double]>
495.45

> <Solvent accessible surface area [A^2] [MProp:scalar:double]>
504.99

> <Strongest acidic pKa>
N/A

> <Strongest basic pKa [MProp:scalar:double]>
8.66

> <Isoelectric point>
N/A

> <Intrinsic solubility [logS] [MProp:scalar:double]>
-3.28

> <Solubility category>
High

> <logP [MProp:scalar:double]>
1.26

> <logD_PH0 [MProp:scalar:double]>
-5.01

> <logD_PH1 [MProp:scalar:double]>
-3.48

> <logD_PH2 [MProp:scalar:double]>
-2.42

> <logD_PH3 [MProp:scalar:double]>
-1.9

> <logD_PH4 [MProp:scalar:double]>
-1.78

> <logD_PH5 [MProp:scalar:double]>
-1.69

> <logD_PH6 [MProp:scalar:double]>
-1.25

> <logD_PH7 [MProp:scalar:double]>
-0.4

> <logD_PH8 [MProp:scalar:double]>
0.51

> <logD_PH9 [MProp:scalar:double]>
1.09

> <logD_PH10 [MProp:scalar:double]>
1.24

> <logD_PH11 [MProp:scalar:double]>
1.26

> <logD_PH12 [MProp:scalar:double]>
1.26

> <logD_PH13 [MProp:scalar:double]>
1.26

> <logD_PH14 [MProp:scalar:double]>
1.26

> <HLB [MProp:scalar:double]>
16.36

> <IUPAC name>
(3R)-3-amino-1-[3-(trifluoromethyl)-5H,6H,7H,8H-[1,2,4]triazolo[4,3-a]pyrazin-7-yl]-4-(2,4,5-trifluorophenyl)butan-1-one

> <SMILES>
N[C@@H](CC(=O)N1CCN2C(C1)=NN=C2C(F)(F)F)CC1=CC(F)=C(F)C=C1F

> <InChI>
InChI=1S/C16H15F6N5O/c17-10-6-12(19)11(18)4-8(10)3-9(23)5-14(28)26-1-2-27-13(7-26)24-25-15(27)16(20,21)22/h4,6,9H,1-3,5,7,23H2/t9-/m1/s1

> <InChIKey>
MFFMDFFZMYYVKS-SECBINFHSA-N

> <Traditional name>
sitagliptin

> <Common names>
januvia; januvia (merck & co.); sitagliptan; sitagliptin; sitagliptin phosphate; xelevia

> <CAS Registry Numbers(R)>
486460-32-6, 790712-60-6

$$$$
Spirotetramat
  Mrv2222 01232613222D          

 27 29  0  0  0  0            999 V2000
   -0.6865   -2.4373    0.0000 C   0  0  0  0  0  0  0  0  0  0  0  0
    0.0280   -2.0248    0.0000 C   0  0  0  0  0  0  0  0  0  0  0  0
    0.7425   -2.4373    0.0000 O   0  0  0  0  0  0  0  0  0  0  0  0
    1.4569   -2.0248    0.0000 C   0  0  0  0  0  0  0  0  0  0  0  0
    1.4569   -1.1998    0.0000 O   0  0  0  0  0  0  0  0  0  0  0  0
    2.1714   -2.4373    0.0000 O   0  0  0  0  0  0  0  0  0  0  0  0
    2.8859   -2.0248    0.0000 C   0  0  0  0  0  0  0  0  0  0  0  0
    2.9721   -1.2043    0.0000 C   0  0  0  0  0  0  0  0  0  0  0  0
    3.7791   -1.0328    0.0000 C   0  0  0  0  0  0  0  0  0  0  0  0
    4.1146   -0.2791    0.0000 O   0  0  0  0  0  0  0  0  0  0  0  0
    4.1916   -1.7472    0.0000 N   0  0  0  0  0  0  0  0  0  0  0  0
    3.6396   -2.3603    0.0000 C   0  0  0  0  0  0  0  0  0  0  0  0
    4.4242   -2.6153    0.0000 C   0  0  0  0  0  0  0  0  0  0  0  0
    4.5957   -3.4222    0.0000 C   0  0  0  0  0  0  0  0  0  0  0  0
    3.9826   -3.9743    0.0000 C   0  0  0  0  0  0  0  0  0  0  0  0
    3.1980   -3.7193    0.0000 C   0  0  0  0  0  0  0  0  0  0  0  0
    3.0265   -2.9124    0.0000 C   0  0  0  0  0  0  0  0  0  0  0  0
    4.1541   -4.7812    0.0000 O   0  0  0  0  0  0  0  0  0  0  0  0
    4.9388   -5.0362    0.0000 C   0  0  0  0  0  0  0  0  0  0  0  0
    2.3590   -0.6523    0.0000 C   0  0  0  0  0  0  0  0  0  0  0  0
    1.5744   -0.9072    0.0000 C   0  0  0  0  0  0  0  0  0  0  0  0
    0.9613   -0.3552    0.0000 C   0  0  0  0  0  0  0  0  0  0  0  0
    1.1328    0.4518    0.0000 C   0  0  0  0  0  0  0  0  0  0  0  0
    1.9175    0.7067    0.0000 C   0  0  0  0  0  0  0  0  0  0  0  0
    2.5305    0.1547    0.0000 C   0  0  0  0  0  0  0  0  0  0  0  0
    2.0890    1.5137    0.0000 C   0  0  0  0  0  0  0  0  0  0  0  0
    0.8207   -1.2428    0.0000 C   0  0  0  0  0  0  0  0  0  0  0  0
  1  2  1  0  0  0  0
  2  3  1  0  0  0  0
  3  4  1  0  0  0  0
  4  5  2  0  0  0  0
  4  6  1  0  0  0  0
  6  7  1  0  0  0  0
  7  8  2  0  0  0  0
  8  9  1  0  0  0  0
  9 10  2  0  0  0  0
  9 11  1  0  0  0  0
 11 12  1  0  0  0  0
  7 12  1  0  0  0  0
 12 13  1  0  0  0  0
 13 14  1  0  0  0  0
 14 15  1  0  0  0  0
 15 16  1  0  0  0  0
 16 17  1  0  0  0  0
 12 17  1  0  0  0  0
 15 18  1  0  0  0  0
 18 19  1  0  0  0  0
  8 20  1  0  0  0  0
 20 21  2  0  0  0  0
 21 22  1  0  0  0  0
 22 23  2  0  0  0  0
 23 24  1  0  0  0  0
 24 25  2  0  0  0  0
 20 25  1  0  0  0  0
 24 26  1  0  0  0  0
 21 27  1  0  0  0  0
M  END
> <Molar mass [g/mol] [MProp:scalar:double]>
373.449

> <Exact mass [Da] [MProp:scalar:double]>
373.188922973

> <Formula>
C21H27NO5

> <Composition>
C (67.54%), H (7.29%), N (3.75%), O (21.42%)

> <Lipinski's rule of five [MProp:scalar:boolean]>
true

> <Atom count [MProp:scalar:integer]>
54

> <Heavy atom count [MProp:scalar:integer]>
27

> <Asymmetric atom count [MProp:scalar:integer]>
0

> <Rotatable bond count [MProp:scalar:integer]>
6

> <Ring count [MProp:scalar:integer]>
3

> <Aromatic ring count [MProp:scalar:integer]>
1

> <Hetero ring count [MProp:scalar:integer]>
1

> <FSP3 [MProp:scalar:double]>
0.52

> <Hydrogen bond donor count [MProp:scalar:integer]>
1

> <Hydrogen bond acceptor count [MProp:scalar:integer]>
4

> <Formal charge [MProp:scalar:integer]>
0

> <Topological polar surface area [A^2] [MProp:scalar:double]>
73.86

> <Polarizability [A^3] [MProp:scalar:double]>
39.46

> <Molar refractivity [cm^3/mol] [MProp:scalar:double]>
102.47

> <Van der Waals volume [A^3] [MProp:scalar:double]>
348.97

> <Minimum projection area [A^2] [MProp:scalar:double]>
57.72

> <Maximum projection area [A^2] [MProp:scalar:double]>
94.17

> <Minimum projection radius [A] [MProp:scalar:double]>
4.88

> <Maximum projection radius [A] [MProp:scalar:double]>
7.97

> <Van der Waals surface area [A^2] [MProp:scalar:double]>
578.19

> <Solvent accessible surface area [A^2] [MProp:scalar:double]>
651.75

> <Strongest acidic pKa [MProp:scalar:double]>
11.74

> <Strongest basic pKa [MProp:scalar:double]>
1.35

> <Isoelectric point [MProp:scalar:double]>
6.55

> <Intrinsic solubility [logS] [MProp:scalar:double]>
-4.32

> <Solubility category>
Moderate

> <logP [MProp:scalar:double]>
3.46

> <logD_PH0 [MProp:scalar:double]>
2.1

> <logD_PH1 [MProp:scalar:double]>
2.95

> <logD_PH2 [MProp:scalar:double]>
3.38

> <logD_PH3 [MProp:scalar:double]>
3.45

> <logD_PH4 [MProp:scalar:double]>
3.46

> <logD_PH5 [MProp:scalar:double]>
3.46

> <logD_PH6 [MProp:scalar:double]>
3.46

> <logD_PH7 [MProp:scalar:double]>
3.46

> <logD_PH8 [MProp:scalar:double]>
3.46

> <logD_PH9 [MProp:scalar:double]>
3.46

> <logD_PH10 [MProp:scalar:double]>
3.46

> <logD_PH11 [MProp:scalar:double]>
3.4

> <logD_PH12 [MProp:scalar:double]>
3.1

> <logD_PH13 [MProp:scalar:double]>
2.67

> <logD_PH14 [MProp:scalar:double]>
2.54

> <HLB [MProp:scalar:double]>
12.66

> <IUPAC name>
3-(2,5-dimethylphenyl)-8-methoxy-2-oxo-1-azaspiro[4.5]dec-3-en-4-yl ethyl carbonate

> <SMILES>
CCOC(=O)OC1=C(C(=O)NC11CCC(CC1)OC)C1=C(C)C=CC(C)=C1

> <InChI>
InChI=1S/C21H27NO5/c1-5-26-20(24)27-18-17(16-12-13(2)6-7-14(16)3)19(23)22-21(18)10-8-15(25-4)9-11-21/h6-7,12,15H,5,8-11H2,1-4H3,(H,22,23)

> <InChIKey>
CLSVJBIHYWPGQY-UHFFFAOYSA-N

> <Traditional name>
spirotetramat

> <Common names>
spirotetramat

> <CAS Registry Numbers(R)>
203313-25-1, 382608-10-8

$$$$
Sulisobenzone
  Mrv2222 01232613222D          

 21 22  0  0  0  0            999 V2000
    1.4289    0.0000    0.0000 C   0  0  0  0  0  0  0  0  0  0  0  0
    2.1434   -0.4125    0.0000 O   0  0  0  0  0  0  0  0  0  0  0  0
    2.1434   -1.2375    0.0000 C   0  0  0  0  0  0  0  0  0  0  0  0
    2.8579   -1.6500    0.0000 C   0  0  0  0  0  0  0  0  0  0  0  0
    2.8579   -2.4750    0.0000 C   0  0  0  0  0  0  0  0  0  0  0  0
    2.1434   -2.8875    0.0000 C   0  0  0  0  0  0  0  0  0  0  0  0
    1.4289   -2.4750    0.0000 C   0  0  0  0  0  0  0  0  0  0  0  0
    1.4289   -1.6500    0.0000 C   0  0  0  0  0  0  0  0  0  0  0  0
    0.7145   -2.8875    0.0000 O   0  0  0  0  0  0  0  0  0  0  0  0
    2.1434   -3.7125    0.0000 C   0  0  0  0  0  0  0  0  0  0  0  0
    2.8579   -4.1250    0.0000 O   0  0  0  0  0  0  0  0  0  0  0  0
    1.4289   -4.1250    0.0000 C   0  0  0  0  0  0  0  0  0  0  0  0
    1.4289   -4.9500    0.0000 C   0  0  0  0  0  0  0  0  0  0  0  0
    0.7145   -5.3625    0.0000 C   0  0  0  0  0  0  0  0  0  0  0  0
    0.0000   -4.9500    0.0000 C   0  0  0  0  0  0  0  0  0  0  0  0
    0.0000   -4.1250    0.0000 C   0  0  0  0  0  0  0  0  0  0  0  0
    0.7145   -3.7125    0.0000 C   0  0  0  0  0  0  0  0  0  0  0  0
    3.5724   -1.2375    0.0000 S   0  0  0  0  0  0  0  0  0  0  0  0
    4.2868   -0.8250    0.0000 O   0  0  0  0  0  0  0  0  0  0  0  0
    3.9849   -1.9520    0.0000 O   0  0  0  0  0  0  0  0  0  0  0  0
    3.1599   -0.5230    0.0000 O   0  0  0  0  0  0  0  0  0  0  0  0
  1  2  1  0  0  0  0
  2  3  1  0  0  0  0
  3  4  2  0  0  0  0
  4  5  1  0  0  0  0
  5  6  2  0  0  0  0
  6  7  1  0  0  0  0
  7  8  2  0  0  0  0
  3  8  1  0  0  0  0
  7  9  1  0  0  0  0
  6 10  1  0  0  0  0
 10 11  2  0  0  0  0
 10 12  1  0  0  0  0
 12 13  2  0  0  0  0
 13 14  1  0  0  0  0
 14 15  2  0  0  0  0
 15 16  1  0  0  0  0
 16 17  2  0  0  0  0
 12 17  1  0  0  0  0
  4 18  1  0  0  0  0
 18 19  2  0  0  0  0
 18 20  2  0  0  0  0
 18 21  1  0  0  0  0
M  END
> <Molar mass [g/mol] [MProp:scalar:double]>
308.3

> <Exact mass [Da] [MProp:scalar:double]>
308.03545928

> <Formula>
C14H12O6S

> <Composition>
C (54.54%), H (3.92%), O (31.14%), S (10.40%)

> <Lipinski's rule of five [MProp:scalar:boolean]>
true

> <Atom count [MProp:scalar:integer]>
33

> <Heavy atom count [MProp:scalar:integer]>
21

> <Asymmetric atom count [MProp:scalar:integer]>
0

> <Rotatable bond count [MProp:scalar:integer]>
4

> <Ring count [MProp:scalar:integer]>
2

> <Aromatic ring count [MProp:scalar:integer]>
2

> <Hetero ring count [MProp:scalar:integer]>
0

> <FSP3 [MProp:scalar:double]>
0.07

> <Hydrogen bond donor count [MProp:scalar:integer]>
2

> <Hydrogen bond acceptor count [MProp:scalar:integer]>
6

> <Formal charge [MProp:scalar:integer]>
0

> <Topological polar surface area [A^2] [MProp:scalar:double]>
100.9

> <Polarizability [A^3] [MProp:scalar:double]>
29.75

> <Molar refractivity [cm^3/mol] [MProp:scalar:double]>
75.7

> <Van der Waals volume [A^3] [MProp:scalar:double]>
251.02

> <Minimum projection area [A^2] [MProp:scalar:double]>
45.01

> <Maximum projection area [A^2] [MProp:scalar:double]>
83.22

> <Minimum projection radius [A] [MProp:scalar:double]>
5.03

> <Maximum projection radius [A] [MProp:scalar:double]>
6.87

> <Van der Waals surface area [A^2] [MProp:scalar:double]>
400.0

> <Solvent accessible surface area [A^2] [MProp:scalar:double]>
508.95

> <Strongest acidic pKa [MProp:scalar:double]>
-2.42

> <Strongest basic pKa>
N/A

> <Isoelectric point>
N/A

> <Intrinsic solubility [logS] [MProp:scalar:double]>
-3.01

> <Solubility category>
High

> <logP [MProp:scalar:double]>
2.8

> <logD_PH0 [MProp:scalar:double]>
0.7

> <logD_PH1 [MProp:scalar:double]>
0.46

> <logD_PH2 [MProp:scalar:double]>
0.43

> <logD_PH3 [MProp:scalar:double]>
0.43

> <logD_PH4 [MProp:scalar:double]>
0.43

> <logD_PH5 [MProp:scalar:double]>
0.42

> <logD_PH6 [MProp:scalar:double]>
0.41

> <logD_PH7 [MProp:scalar:double]>
0.32

> <logD_PH8 [MProp:scalar:double]>
-0.13

> <logD_PH9 [MProp:scalar:double]>
-0.92

> <logD_PH10 [MProp:scalar:double]>
-1.45

> <logD_PH11 [MProp:scalar:double]>
-1.58

> <logD_PH12 [MProp:scalar:double]>
-1.59

> <logD_PH13 [MProp:scalar:double]>
-1.59

> <logD_PH14 [MProp:scalar:double]>
-1.59

> <HLB [MProp:scalar:double]>
10.09

> <IUPAC name>
5-benzoyl-4-hydroxy-2-methoxybenzene-1-sulfonic acid

> <SMILES>
COC1=C(C=C(C(=O)C2=CC=CC=C2)C(O)=C1)S(O)(=O)=O

> <InChI>
InChI=1S/C14H12O6S/c1-20-12-8-11(15)10(7-13(12)21(17,18)19)14(16)9-5-3-2-4-6-9/h2-8,15H,1H3,(H,17,18,19)

> <InChIKey>
CXVGEDCSTKKODG-UHFFFAOYSA-N

> <Traditional name>
sungard

> <Common names>
Uval; benzophenone 4; monosodium salt sulisobenzone; seesorb 101S; spectra-sorb UV 284; sulisobenzona; sulisobenzone; sulisobenzone (substance); sulisobenzone, monosodium salt; sulisobenzonum; sungard; syntase 230; uvinuc ms 40; uvinul; uvinul MS 40; uvinul MS-40 substanz

> <CAS Registry Numbers(R)>
4065-45-6

$$$$
Terbutryn
  Mrv2222 01232613222D          

 16 16  0  0  0  0            999 V2000
    0.0000    3.3000    0.0000 C   0  0  0  0  0  0  0  0  0  0  0  0
    0.0000    2.4750    0.0000 C   0  0  0  0  0  0  0  0  0  0  0  0
    0.7145    2.0625    0.0000 N   0  0  0  0  0  0  0  0  0  0  0  0
    0.7145    1.2375    0.0000 C   0  0  0  0  0  0  0  0  0  0  0  0
    1.4289    0.8250    0.0000 N   0  0  0  0  0  0  0  0  0  0  0  0
    1.4289    0.0000    0.0000 C   0  0  0  0  0  0  0  0  0  0  0  0
    0.7145   -0.4125    0.0000 N   0  0  0  0  0  0  0  0  0  0  0  0
    0.0000    0.0000    0.0000 C   0  0  0  0  0  0  0  0  0  0  0  0
    0.0000    0.8250    0.0000 N   0  0  0  0  0  0  0  0  0  0  0  0
   -0.7145   -0.4125    0.0000 S   0  0  0  0  0  0  0  0  0  0  0  0
   -1.4289    0.0000    0.0000 C   0  0  0  0  0  0  0  0  0  0  0  0
    2.1434   -0.4125    0.0000 N   0  0  0  0  0  0  0  0  0  0  0  0
    2.8579    0.0000    0.0000 C   0  0  0  0  0  0  0  0  0  0  0  0
    3.5724    0.4125    0.0000 C   0  0  0  0  0  0  0  0  0  0  0  0
    3.2704   -0.7145    0.0000 C   0  0  0  0  0  0  0  0  0  0  0  0
    2.4454    0.7145    0.0000 C   0  0  0  0  0  0  0  0  0  0  0  0
  1  2  1  0  0  0  0
  2  3  1  0  0  0  0
  3  4  1  0  0  0  0
  4  5  2  0  0  0  0
  5  6  1  0  0  0  0
  6  7  2  0  0  0  0
  7  8  1  0  0  0  0
  8  9  2  0  0  0  0
  4  9  1  0  0  0  0
  8 10  1  0  0  0  0
 10 11  1  0  0  0  0
  6 12  1  0  0  0  0
 12 13  1  0  0  0  0
 13 14  1  0  0  0  0
 13 15  1  0  0  0  0
 13 16  1  0  0  0  0
M  END
> <Molar mass [g/mol] [MProp:scalar:double]>
241.36

> <Exact mass [Da] [MProp:scalar:double]>
241.136116806

> <Formula>
C10H19N5S

> <Composition>
C (49.76%), H (7.94%), N (29.02%), S (13.28%)

> <Lipinski's rule of five [MProp:scalar:boolean]>
true

> <Atom count [MProp:scalar:integer]>
35

> <Heavy atom count [MProp:scalar:integer]>
16

> <Asymmetric atom count [MProp:scalar:integer]>
0

> <Rotatable bond count [MProp:scalar:integer]>
5

> <Ring count [MProp:scalar:integer]>
1

> <Aromatic ring count [MProp:scalar:integer]>
1

> <Hetero ring count [MProp:scalar:integer]>
1

> <FSP3 [MProp:scalar:double]>
0.7

> <Hydrogen bond donor count [MProp:scalar:integer]>
2

> <Hydrogen bond acceptor count [MProp:scalar:integer]>
5

> <Formal charge [MProp:scalar:integer]>
0

> <Topological polar surface area [A^2] [MProp:scalar:double]>
62.73

> <Polarizability [A^3] [MProp:scalar:double]>
25.9

> <Molar refractivity [cm^3/mol] [MProp:scalar:double]>
74.06

> <Van der Waals volume [A^3] [MProp:scalar:double]>
230.07

> <Minimum projection area [A^2] [MProp:scalar:double]>
48.11

> <Maximum projection area [A^2] [MProp:scalar:double]>
77.39

> <Minimum projection radius [A] [MProp:scalar:double]>
5.27

> <Maximum projection radius [A] [MProp:scalar:double]>
6.77

> <Van der Waals surface area [A^2] [MProp:scalar:double]>
399.94

> <Solvent accessible surface area [A^2] [MProp:scalar:double]>
537.84

> <Strongest acidic pKa [MProp:scalar:double]>
14.31

> <Strongest basic pKa [MProp:scalar:double]>
6.72

> <Isoelectric point [MProp:scalar:double]>
10.51

> <Intrinsic solubility [logS] [MProp:scalar:double]>
-3.83

> <Solubility category>
Moderate

> <logP [MProp:scalar:double]>
2.88

> <logD_PH0 [MProp:scalar:double]>
0.37

> <logD_PH1 [MProp:scalar:double]>
0.81

> <logD_PH2 [MProp:scalar:double]>
0.91

> <logD_PH3 [MProp:scalar:double]>
0.92

> <logD_PH4 [MProp:scalar:double]>
0.99

> <logD_PH5 [MProp:scalar:double]>
1.35

> <logD_PH6 [MProp:scalar:double]>
2.11

> <logD_PH7 [MProp:scalar:double]>
2.7

> <logD_PH8 [MProp:scalar:double]>
2.85

> <logD_PH9 [MProp:scalar:double]>
2.87

> <logD_PH10 [MProp:scalar:double]>
2.88

> <logD_PH11 [MProp:scalar:double]>
2.88

> <logD_PH12 [MProp:scalar:double]>
2.87

> <logD_PH13 [MProp:scalar:double]>
2.86

> <logD_PH14 [MProp:scalar:double]>
2.71

> <HLB [MProp:scalar:double]>
8.49

> <IUPAC name>
N2-tert-butyl-N4-ethyl-6-(methylsulfanyl)-1,3,5-triazine-2,4-diamine

> <SMILES>
CCNC1=NC(NC(C)(C)C)=NC(SC)=N1

> <InChI>
InChI=1S/C10H19N5S/c1-6-11-7-12-8(15-10(2,3)4)14-9(13-7)16-5/h6H2,1-5H3,(H2,11,12,13,14,15)

> <InChIKey>
IROINLKCQGIITA-UHFFFAOYSA-N

> <Traditional name>
shortstop

> <Common names>
caswell no. 125D; clarosan; epa pesticide chemical code 080813; igran; igran 50; igran 500; prebane; saterb; short-stop E; shortstop; terbutrex; terbutrin; terbutryn; terbutryne

> <CAS Registry Numbers(R)>
886-50-0

$$$$
Terpineol
  Mrv2222 01232613222D          

 11 11  0  0  0  0            999 V2000
    0.7145    2.0625    0.0000 C   0  0  0  0  0  0  0  0  0  0  0  0
    0.7145    1.2375    0.0000 C   0  0  0  0  0  0  0  0  0  0  0  0
    1.4289    0.8250    0.0000 C   0  0  0  0  0  0  0  0  0  0  0  0
    1.4289    0.0000    0.0000 C   0  0  0  0  0  0  0  0  0  0  0  0
    0.7145   -0.4125    0.0000 C   0  0  0  0  0  0  0  0  0  0  0  0
    0.0000    0.0000    0.0000 C   0  0  0  0  0  0  0  0  0  0  0  0
    0.0000    0.8250    0.0000 C   0  0  0  0  0  0  0  0  0  0  0  0
    0.7145   -1.2375    0.0000 C   0  0  0  0  0  0  0  0  0  0  0  0
    0.7145   -2.0625    0.0000 C   0  0  0  0  0  0  0  0  0  0  0  0
   -0.1105   -1.2375    0.0000 C   0  0  0  0  0  0  0  0  0  0  0  0
    1.5395   -1.2375    0.0000 O   0  0  0  0  0  0  0  0  0  0  0  0
  1  2  1  0  0  0  0
  2  3  2  0  0  0  0
  3  4  1  0  0  0  0
  4  5  1  0  0  0  0
  5  6  1  0  0  0  0
  6  7  1  0  0  0  0
  2  7  1  0  0  0  0
  5  8  1  0  0  0  0
  8  9  1  0  0  0  0
  8 10  1  0  0  0  0
  8 11  1  0  0  0  0
M  END
> <Molar mass [g/mol] [MProp:scalar:double]>
154.253

> <Exact mass [Da] [MProp:scalar:double]>
154.1357652

> <Formula>
C10H18O

> <Composition>
C (77.87%), H (11.76%), O (10.37%)

> <Lipinski's rule of five [MProp:scalar:boolean]>
true

> <Atom count [MProp:scalar:integer]>
29

> <Heavy atom count [MProp:scalar:integer]>
11

> <Asymmetric atom count [MProp:scalar:integer]>
1

> <Rotatable bond count [MProp:scalar:integer]>
1

> <Ring count [MProp:scalar:integer]>
1

> <Aromatic ring count [MProp:scalar:integer]>
0

> <Hetero ring count [MProp:scalar:integer]>
0

> <FSP3 [MProp:scalar:double]>
0.8

> <Hydrogen bond donor count [MProp:scalar:integer]>
1

> <Hydrogen bond acceptor count [MProp:scalar:integer]>
1

> <Formal charge [MProp:scalar:integer]>
0

> <Topological polar surface area [A^2] [MProp:scalar:double]>
20.23

> <Polarizability [A^3] [MProp:scalar:double]>
18.81

> <Molar refractivity [cm^3/mol] [MProp:scalar:double]>
48.46

> <Van der Waals volume [A^3] [MProp:scalar:double]>
171.08

> <Minimum projection area [A^2] [MProp:scalar:double]>
30.15

> <Maximum projection area [A^2] [MProp:scalar:double]>
55.93

> <Minimum projection radius [A] [MProp:scalar:double]>
3.45

> <Maximum projection radius [A] [MProp:scalar:double]>
5.43

> <Van der Waals surface area [A^2] [MProp:scalar:double]>
293.61

> <Solvent accessible surface area [A^2] [MProp:scalar:double]>
334.67

> <Strongest acidic pKa>
N/A

> <Strongest basic pKa [MProp:scalar:double]>
-0.87

> <Isoelectric point>
N/A

> <Intrinsic solubility [logS] [MProp:scalar:double]>
-1.72

> <Solubility category>
High

> <logP [MProp:scalar:double]>
2.17

> <logD_PH0 [MProp:scalar:double]>
2.13

> <logD_PH1 [MProp:scalar:double]>
2.17

> <logD_PH2 [MProp:scalar:double]>
2.17

> <logD_PH3 [MProp:scalar:double]>
2.17

> <logD_PH4 [MProp:scalar:double]>
2.17

> <logD_PH5 [MProp:scalar:double]>
2.17

> <logD_PH6 [MProp:scalar:double]>
2.17

> <logD_PH7 [MProp:scalar:double]>
2.17

> <logD_PH8 [MProp:scalar:double]>
2.17

> <logD_PH9 [MProp:scalar:double]>
2.17

> <logD_PH10 [MProp:scalar:double]>
2.17

> <logD_PH11 [MProp:scalar:double]>
2.17

> <logD_PH12 [MProp:scalar:double]>
2.17

> <logD_PH13 [MProp:scalar:double]>
2.17

> <logD_PH14 [MProp:scalar:double]>
2.17

> <HLB [MProp:scalar:double]>
4.57

> <IUPAC name>
2-(4-methylcyclohex-3-en-1-yl)propan-2-ol

> <SMILES>
CC1=CCC(CC1)C(C)(C)O

> <InChI>
InChI=1/C10H18O/c1-8-4-6-9(7-5-8)10(2,3)11/h4,9,11H,5-7H2,1-3H3

> <InChIKey>
WUOACPNHFRMFPN-UHFFFAOYNA-N

> <Traditional name>
terpineol

> <Common names>
1-α-terpineol; terpineol; α-terpineol

> <CAS Registry Numbers(R)>
98-55-5, 8006-39-1, 68797-63-7

$$$$
Tonalide
  Mrv2222 01232613222D          

 19 20  0  0  0  0            999 V2000
   -1.4289    0.0000    0.0000 C   0  0  0  0  0  0  0  0  0  0  0  0
   -0.7145   -0.4125    0.0000 C   0  0  0  0  0  0  0  0  0  0  0  0
   -0.7145   -1.2375    0.0000 C   0  0  0  0  0  0  0  0  0  0  0  0
    0.0000   -1.6500    0.0000 C   0  0  0  0  0  0  0  0  0  0  0  0
    0.7145   -1.2375    0.0000 C   0  0  0  0  0  0  0  0  0  0  0  0
    0.7145   -0.4125    0.0000 C   0  0  0  0  0  0  0  0  0  0  0  0
    0.0000    0.0000    0.0000 C   0  0  0  0  0  0  0  0  0  0  0  0
    0.3873    0.7284    0.0000 C   0  0  0  0  0  0  0  0  0  0  0  0
   -0.3873    0.7284    0.0000 C   0  0  0  0  0  0  0  0  0  0  0  0
    1.4289    0.0000    0.0000 C   0  0  0  0  0  0  0  0  0  0  0  0
    2.1434   -0.4125    0.0000 C   0  0  0  0  0  0  0  0  0  0  0  0
    2.1434   -1.2375    0.0000 C   0  0  0  0  0  0  0  0  0  0  0  0
    1.4289   -1.6500    0.0000 C   0  0  0  0  0  0  0  0  0  0  0  0
    2.8579   -1.6500    0.0000 C   0  0  0  0  0  0  0  0  0  0  0  0
    3.5724   -1.2375    0.0000 O   0  0  0  0  0  0  0  0  0  0  0  0
    2.8579   -2.4750    0.0000 C   0  0  0  0  0  0  0  0  0  0  0  0
    2.8579    0.0000    0.0000 C   0  0  0  0  0  0  0  0  0  0  0  0
   -0.3873   -2.3784    0.0000 C   0  0  0  0  0  0  0  0  0  0  0  0
    0.3873   -2.3784    0.0000 C   0  0  0  0  0  0  0  0  0  0  0  0
  1  2  1  0  0  0  0
  2  3  1  0  0  0  0
  3  4  1  0  0  0  0
  4  5  1  0  0  0  0
  5  6  2  0  0  0  0
  6  7  1  0  0  0  0
  2  7  1  0  0  0  0
  7  8  1  0  0  0  0
  7  9  1  0  0  0  0
  6 10  1  0  0  0  0
 10 11  2  0  0  0  0
 11 12  1  0  0  0  0
 12 13  2  0  0  0  0
  5 13  1  0  0  0  0
 12 14  1  0  0  0  0
 14 15  2  0  0  0  0
 14 16  1  0  0  0  0
 11 17  1  0  0  0  0
  4 18  1  0  0  0  0
  4 19  1  0  0  0  0
M  END
> <Molar mass [g/mol] [MProp:scalar:double]>
258.405

> <Exact mass [Da] [MProp:scalar:double]>
258.198365457

> <Formula>
C18H26O

> <Composition>
C (83.67%), H (10.14%), O (6.19%)

> <Lipinski's rule of five [MProp:scalar:boolean]>
true

> <Atom count [MProp:scalar:integer]>
45

> <Heavy atom count [MProp:scalar:integer]>
19

> <Asymmetric atom count [MProp:scalar:integer]>
1

> <Rotatable bond count [MProp:scalar:integer]>
1

> <Ring count [MProp:scalar:integer]>
2

> <Aromatic ring count [MProp:scalar:integer]>
1

> <Hetero ring count [MProp:scalar:integer]>
0

> <FSP3 [MProp:scalar:double]>
0.61

> <Hydrogen bond donor count [MProp:scalar:integer]>
0

> <Hydrogen bond acceptor count [MProp:scalar:integer]>
1

> <Formal charge [MProp:scalar:integer]>
0

> <Topological polar surface area [A^2] [MProp:scalar:double]>
17.07

> <Polarizability [A^3] [MProp:scalar:double]>
31.55

> <Molar refractivity [cm^3/mol] [MProp:scalar:double]>
81.58

> <Van der Waals volume [A^3] [MProp:scalar:double]>
278.31

> <Minimum projection area [A^2] [MProp:scalar:double]>
47.13

> <Maximum projection area [A^2] [MProp:scalar:double]>
84.37

> <Minimum projection radius [A] [MProp:scalar:double]>
4.74

> <Maximum projection radius [A] [MProp:scalar:double]>
6.48

> <Van der Waals surface area [A^2] [MProp:scalar:double]>
479.08

> <Solvent accessible surface area [A^2] [MProp:scalar:double]>
482.77

> <Strongest acidic pKa>
N/A

> <Strongest basic pKa>
N/A

> <Isoelectric point>
N/A

> <Intrinsic solubility [logS] [MProp:scalar:double]>
-5.91

> <Solubility category>
Low

> <logP [MProp:scalar:double]>
4.96

> <logD_PH0 [MProp:scalar:double]>
4.96

> <logD_PH1 [MProp:scalar:double]>
4.96

> <logD_PH2 [MProp:scalar:double]>
4.96

> <logD_PH3 [MProp:scalar:double]>
4.96

> <logD_PH4 [MProp:scalar:double]>
4.96

> <logD_PH5 [MProp:scalar:double]>
4.96

> <logD_PH6 [MProp:scalar:double]>
4.96

> <logD_PH7 [MProp:scalar:double]>
4.96

> <logD_PH8 [MProp:scalar:double]>
4.96

> <logD_PH9 [MProp:scalar:double]>
4.96

> <logD_PH10 [MProp:scalar:double]>
4.96

> <logD_PH11 [MProp:scalar:double]>
4.96

> <logD_PH12 [MProp:scalar:double]>
4.96

> <logD_PH13 [MProp:scalar:double]>
4.96

> <logD_PH14 [MProp:scalar:double]>
4.96

> <HLB [MProp:scalar:double]>
0.92

> <IUPAC name>
1-(3,5,5,6,8,8-hexamethyl-5,6,7,8-tetrahydronaphthalen-2-yl)ethan-1-one

> <SMILES>
CC1CC(C)(C)C2=C(C=C(C)C(=C2)C(C)=O)C1(C)C

> <InChI>
InChI=1/C18H26O/c1-11-8-16-15(9-14(11)13(3)19)17(4,5)10-12(2)18(16,6)7/h8-9,12H,10H2,1-7H3

> <InChIKey>
DNRJTBAOUJJKDY-UHFFFAOYNA-N

> <Traditional name>
tonalid

> <Common names>
acetyl hexamethyl tetralin; tonalid

> <CAS Registry Numbers(R)>
21145-77-7, 1506-02-1

$$$$
Tramadol
  Mrv2222 01232613222D          

 19 20  0  0  1  0            999 V2000
    3.1850   -1.1409    0.0000 C   0  0  0  0  0  0  0  0  0  0  0  0
    2.4706   -1.5534    0.0000 N   0  0  0  0  0  0  0  0  0  0  0  0
    2.4706   -2.3784    0.0000 C   0  0  0  0  0  0  0  0  0  0  0  0
    1.7561   -1.1409    0.0000 C   0  0  0  0  0  0  0  0  0  0  0  0
    1.0416   -1.5534    0.0000 C   0  0  1  0  0  0  0  0  0  0  0  0
    1.0416   -2.3784    0.0000 C   0  0  0  0  0  0  0  0  0  0  0  0
    0.3272   -2.7909    0.0000 C   0  0  0  0  0  0  0  0  0  0  0  0
   -0.3873   -2.3784    0.0000 C   0  0  0  0  0  0  0  0  0  0  0  0
   -0.3873   -1.5534    0.0000 C   0  0  0  0  0  0  0  0  0  0  0  0
    0.3272   -1.1409    0.0000 C   0  0  2  0  0  0  0  0  0  0  0  0
   -0.0602   -0.4125    0.0000 C   0  0  0  0  0  0  0  0  0  0  0  0
   -0.8847   -0.3837    0.0000 C   0  0  0  0  0  0  0  0  0  0  0  0
   -1.2720    0.3447    0.0000 C   0  0  0  0  0  0  0  0  0  0  0  0
   -0.8348    1.0444    0.0000 C   0  0  0  0  0  0  0  0  0  0  0  0
   -0.0103    1.0156    0.0000 C   0  0  0  0  0  0  0  0  0  0  0  0
    0.3770    0.2871    0.0000 C   0  0  0  0  0  0  0  0  0  0  0  0
   -2.0965    0.3735    0.0000 O   0  0  0  0  0  0  0  0  0  0  0  0
   -2.5336   -0.3261    0.0000 C   0  0  0  0  0  0  0  0  0  0  0  0
    0.7145   -0.4125    0.0000 O   0  0  0  0  0  0  0  0  0  0  0  0
  1  2  1  0  0  0  0
  2  3  1  0  0  0  0
  2  4  1  0  0  0  0
  5  4  1  1  0  0  0
  5  6  1  0  0  0  0
  6  7  1  0  0  0  0
  7  8  1  0  0  0  0
  8  9  1  0  0  0  0
 10  9  1  0  0  0  0
  5 10  1  0  0  0  0
 10 11  1  6  0  0  0
 11 12  2  0  0  0  0
 12 13  1  0  0  0  0
 13 14  2  0  0  0  0
 14 15  1  0  0  0  0
 15 16  2  0  0  0  0
 11 16  1  0  0  0  0
 13 17  1  0  0  0  0
 17 18  1  0  0  0  0
 10 19  1  1  0  0  0
M  END
> <Molar mass [g/mol] [MProp:scalar:double]>
263.381

> <Exact mass [Da] [MProp:scalar:double]>
263.188529049

> <Formula>
C16H25NO2

> <Composition>
C (72.97%), H (9.57%), N (5.32%), O (12.15%)

> <Lipinski's rule of five [MProp:scalar:boolean]>
true

> <Atom count [MProp:scalar:integer]>
44

> <Heavy atom count [MProp:scalar:integer]>
19

> <Asymmetric atom count [MProp:scalar:integer]>
2

> <Rotatable bond count [MProp:scalar:integer]>
4

> <Ring count [MProp:scalar:integer]>
2

> <Aromatic ring count [MProp:scalar:integer]>
1

> <Hetero ring count [MProp:scalar:integer]>
0

> <FSP3 [MProp:scalar:double]>
0.62

> <Hydrogen bond donor count [MProp:scalar:integer]>
1

> <Hydrogen bond acceptor count [MProp:scalar:integer]>
3

> <Formal charge [MProp:scalar:integer]>
0

> <Topological polar surface area [A^2] [MProp:scalar:double]>
32.7

> <Polarizability [A^3] [MProp:scalar:double]>
30.84

> <Molar refractivity [cm^3/mol] [MProp:scalar:double]>
78.27

> <Van der Waals volume [A^3] [MProp:scalar:double]>
272.29

> <Minimum projection area [A^2] [MProp:scalar:double]>
42.96

> <Maximum projection area [A^2] [MProp:scalar:double]>
80.55

> <Minimum projection radius [A] [MProp:scalar:double]>
4.45

> <Maximum projection radius [A] [MProp:scalar:double]>
7.22

> <Van der Waals surface area [A^2] [MProp:scalar:double]>
466.77

> <Solvent accessible surface area [A^2] [MProp:scalar:double]>
482.64

> <Strongest acidic pKa [MProp:scalar:double]>
13.8

> <Strongest basic pKa [MProp:scalar:double]>
9.38

> <Isoelectric point [MProp:scalar:double]>
11.59

> <Intrinsic solubility [logS] [MProp:scalar:double]>
-2.55

> <Solubility category>
High

> <logP [MProp:scalar:double]>
2.45

> <logD_PH0 [MProp:scalar:double]>
-1.05

> <logD_PH1 [MProp:scalar:double]>
-1.05

> <logD_PH2 [MProp:scalar:double]>
-1.05

> <logD_PH3 [MProp:scalar:double]>
-1.05

> <logD_PH4 [MProp:scalar:double]>
-1.05

> <logD_PH5 [MProp:scalar:double]>
-1.0

> <logD_PH6 [MProp:scalar:double]>
-0.69

> <logD_PH7 [MProp:scalar:double]>
0.1

> <logD_PH8 [MProp:scalar:double]>
1.05

> <logD_PH9 [MProp:scalar:double]>
1.92

> <logD_PH10 [MProp:scalar:double]>
2.36

> <logD_PH11 [MProp:scalar:double]>
2.44

> <logD_PH12 [MProp:scalar:double]>
2.44

> <logD_PH13 [MProp:scalar:double]>
2.39

> <logD_PH14 [MProp:scalar:double]>
2.04

> <HLB [MProp:scalar:double]>
11.86

> <IUPAC name>
(1R,2R)-2-[(dimethylamino)methyl]-1-(3-methoxyphenyl)cyclohexan-1-ol

> <SMILES>
COC1=CC=CC(=C1)[C@@]1(O)CCCC[C@@H]1CN(C)C

> <InChI>
InChI=1S/C16H25NO2/c1-17(2)12-14-7-4-5-10-16(14,18)13-8-6-9-15(11-13)19-3/h6,8-9,11,14,18H,4-5,7,10,12H2,1-3H3/t14-,16+/m1/s1

> <InChIKey>
TVYLLZQTGLZFBW-ZBFHGGJFSA-N

> <Traditional name>
tramadol

> <Common names>
(R,R) tramadol; crispin; ralivia ER; ralivia flashtab; tramadol; tramadolum; tramal; tridural; ultram; ultram ER; zydol

> <CAS Registry Numbers(R)>
27203-92-5, 123154-38-1, 181289-58-7

$$$$
N-Phenyl-1-naphthylamine
  Mrv2222 01232613222D          

 17 19  0  0  0  0            999 V2000
   -0.7145   -3.7125    0.0000 C   0  0  0  0  0  0  0  0  0  0  0  0
   -0.7145   -2.8875    0.0000 C   0  0  0  0  0  0  0  0  0  0  0  0
    0.0000   -2.4750    0.0000 C   0  0  0  0  0  0  0  0  0  0  0  0
    0.7145   -2.8875    0.0000 C   0  0  0  0  0  0  0  0  0  0  0  0
    0.7145   -3.7125    0.0000 C   0  0  0  0  0  0  0  0  0  0  0  0
    0.0000   -4.1250    0.0000 C   0  0  0  0  0  0  0  0  0  0  0  0
    1.4289   -2.4750    0.0000 N   0  0  0  0  0  0  0  0  0  0  0  0
    1.4289   -1.6500    0.0000 C   0  0  0  0  0  0  0  0  0  0  0  0
    0.7145   -1.2375    0.0000 C   0  0  0  0  0  0  0  0  0  0  0  0
    0.7145   -0.4125    0.0000 C   0  0  0  0  0  0  0  0  0  0  0  0
    1.4289    0.0000    0.0000 C   0  0  0  0  0  0  0  0  0  0  0  0
    2.1434   -0.4125    0.0000 C   0  0  0  0  0  0  0  0  0  0  0  0
    2.8579    0.0000    0.0000 C   0  0  0  0  0  0  0  0  0  0  0  0
    3.5724   -0.4125    0.0000 C   0  0  0  0  0  0  0  0  0  0  0  0
    3.5724   -1.2375    0.0000 C   0  0  0  0  0  0  0  0  0  0  0  0
    2.8579   -1.6500    0.0000 C   0  0  0  0  0  0  0  0  0  0  0  0
    2.1434   -1.2375    0.0000 C   0  0  0  0  0  0  0  0  0  0  0  0
  1  2  2  0  0  0  0
  2  3  1  0  0  0  0
  3  4  2  0  0  0  0
  4  5  1  0  0  0  0
  5  6  2  0  0  0  0
  1  6  1  0  0  0  0
  4  7  1  0  0  0  0
  7  8  1  0  0  0  0
  8  9  2  0  0  0  0
  9 10  1  0  0  0  0
 10 11  2  0  0  0  0
 11 12  1  0  0  0  0
 12 13  2  0  0  0  0
 13 14  1  0  0  0  0
 14 15  2  0  0  0  0
 15 16  1  0  0  0  0
 16 17  2  0  0  0  0
 12 17  1  0  0  0  0
  8 17  1  0  0  0  0
M  END
> <Molar mass [g/mol] [MProp:scalar:double]>
219.287

> <Exact mass [Da] [MProp:scalar:double]>
219.104799423

> <Formula>
C16H13N

> <Composition>
C (87.64%), H (5.98%), N (6.39%)

> <Lipinski's rule of five [MProp:scalar:boolean]>
true

> <Atom count [MProp:scalar:integer]>
30

> <Heavy atom count [MProp:scalar:integer]>
17

> <Asymmetric atom count [MProp:scalar:integer]>
0

> <Rotatable bond count [MProp:scalar:integer]>
2

> <Ring count [MProp:scalar:integer]>
3

> <Aromatic ring count [MProp:scalar:integer]>
3

> <Hetero ring count [MProp:scalar:integer]>
0

> <FSP3 [MProp:scalar:double]>
0.0

> <Hydrogen bond donor count [MProp:scalar:integer]>
1

> <Hydrogen bond acceptor count [MProp:scalar:integer]>
1

> <Formal charge [MProp:scalar:integer]>
0

> <Topological polar surface area [A^2] [MProp:scalar:double]>
12.03

> <Polarizability [A^3] [MProp:scalar:double]>
28.78

> <Molar refractivity [cm^3/mol] [MProp:scalar:double]>
70.99

> <Van der Waals volume [A^3] [MProp:scalar:double]>
207.51

> <Minimum projection area [A^2] [MProp:scalar:double]>
34.41

> <Maximum projection area [A^2] [MProp:scalar:double]>
79.64

> <Minimum projection radius [A] [MProp:scalar:double]>
4.86

> <Maximum projection radius [A] [MProp:scalar:double]>
6.55

> <Van der Waals surface area [A^2] [MProp:scalar:double]>
324.61

> <Solvent accessible surface area [A^2] [MProp:scalar:double]>
417.75

> <Strongest acidic pKa>
N/A

> <Strongest basic pKa [MProp:scalar:double]>
0.34

> <Isoelectric point>
N/A

> <Intrinsic solubility [logS] [MProp:scalar:double]>
-5.04

> <Solubility category>
Low

> <logP [MProp:scalar:double]>
4.4

> <logD_PH0 [MProp:scalar:double]>
3.9

> <logD_PH1 [MProp:scalar:double]>
4.32

> <logD_PH2 [MProp:scalar:double]>
4.39

> <logD_PH3 [MProp:scalar:double]>
4.4

> <logD_PH4 [MProp:scalar:double]>
4.4

> <logD_PH5 [MProp:scalar:double]>
4.4

> <logD_PH6 [MProp:scalar:double]>
4.4

> <logD_PH7 [MProp:scalar:double]>
4.4

> <logD_PH8 [MProp:scalar:double]>
4.4

> <logD_PH9 [MProp:scalar:double]>
4.4

> <logD_PH10 [MProp:scalar:double]>
4.4

> <logD_PH11 [MProp:scalar:double]>
4.4

> <logD_PH12 [MProp:scalar:double]>
4.4

> <logD_PH13 [MProp:scalar:double]>
4.4

> <logD_PH14 [MProp:scalar:double]>
4.4

> <HLB [MProp:scalar:double]>
2.94

> <IUPAC name>
N-phenylnaphthalen-1-amine

> <SMILES>
N(C1=CC=CC=C1)C1=CC=CC2=CC=CC=C12

> <InChI>
InChI=1S/C16H13N/c1-2-9-14(10-3-1)17-16-12-6-8-13-7-4-5-11-15(13)16/h1-12,17H

> <InChIKey>
XQVWYOYUZDUNRW-UHFFFAOYSA-N

> <Traditional name>
PANA

> <Common names>
1-N-phenylnaphthylamine; 1-n-phenylnaphthylamine; N-fenyl-1-aminonaftalen; PANA; aceto pan; additin 30; amoco 32; antigene pan; antioxidant pan; fenyl-α-naftylamin; neozone A; nonox A; vulkanox pan

> <CAS Registry Numbers(R)>
90-30-2

$$$$
2-Naphthylamine
  Mrv2222 01232613222D          

 11 12  0  0  0  0            999 V2000
    0.7145   -1.2375    0.0000 C   0  0  0  0  0  0  0  0  0  0  0  0
    0.7145   -0.4125    0.0000 C   0  0  0  0  0  0  0  0  0  0  0  0
    1.4289    0.0000    0.0000 C   0  0  0  0  0  0  0  0  0  0  0  0
    2.1434   -0.4125    0.0000 C   0  0  0  0  0  0  0  0  0  0  0  0
    2.8579    0.0000    0.0000 C   0  0  0  0  0  0  0  0  0  0  0  0
    3.5724   -0.4125    0.0000 C   0  0  0  0  0  0  0  0  0  0  0  0
    3.5724   -1.2375    0.0000 C   0  0  0  0  0  0  0  0  0  0  0  0
    2.8579   -1.6500    0.0000 C   0  0  0  0  0  0  0  0  0  0  0  0
    2.1434   -1.2375    0.0000 C   0  0  0  0  0  0  0  0  0  0  0  0
    1.4289   -1.6500    0.0000 C   0  0  0  0  0  0  0  0  0  0  0  0
    4.2868    0.0000    0.0000 N   0  0  0  0  0  0  0  0  0  0  0  0
  1  2  1  0  0  0  0
  2  3  2  0  0  0  0
  3  4  1  0  0  0  0
  4  5  2  0  0  0  0
  5  6  1  0  0  0  0
  6  7  2  0  0  0  0
  7  8  1  0  0  0  0
  8  9  2  0  0  0  0
  4  9  1  0  0  0  0
  9 10  1  0  0  0  0
  1 10  2  0  0  0  0
  6 11  1  0  0  0  0
M  END
> <Molar mass [g/mol] [MProp:scalar:double]>
143.189

> <Exact mass [Da] [MProp:scalar:double]>
143.073499294

> <Formula>
C10H9N

> <Composition>
C (83.88%), H (6.34%), N (9.78%)

> <Lipinski's rule of five [MProp:scalar:boolean]>
true

> <Atom count [MProp:scalar:integer]>
20

> <Heavy atom count [MProp:scalar:integer]>
11

> <Asymmetric atom count [MProp:scalar:integer]>
0

> <Rotatable bond count [MProp:scalar:integer]>
0

> <Ring count [MProp:scalar:integer]>
2

> <Aromatic ring count [MProp:scalar:integer]>
2

> <Hetero ring count [MProp:scalar:integer]>
0

> <FSP3 [MProp:scalar:double]>
0.0

> <Hydrogen bond donor count [MProp:scalar:integer]>
1

> <Hydrogen bond acceptor count [MProp:scalar:integer]>
1

> <Formal charge [MProp:scalar:integer]>
0

> <Topological polar surface area [A^2] [MProp:scalar:double]>
26.02

> <Polarizability [A^3] [MProp:scalar:double]>
19.13

> <Molar refractivity [cm^3/mol] [MProp:scalar:double]>
47.21

> <Van der Waals volume [A^3] [MProp:scalar:double]>
136.16

> <Minimum projection area [A^2] [MProp:scalar:double]>
24.89

> <Maximum projection area [A^2] [MProp:scalar:double]>
55.05

> <Minimum projection radius [A] [MProp:scalar:double]>
3.86

> <Maximum projection radius [A] [MProp:scalar:double]>
5.23

> <Van der Waals surface area [A^2] [MProp:scalar:double]>
213.31

> <Solvent accessible surface area [A^2] [MProp:scalar:double]>
305.67

> <Strongest acidic pKa>
N/A

> <Strongest basic pKa [MProp:scalar:double]>
4.25

> <Isoelectric point>
N/A

> <Intrinsic solubility [logS] [MProp:scalar:double]>
-3.09

> <Solubility category>
High

> <logP [MProp:scalar:double]>
2.13

> <logD_PH0 [MProp:scalar:double]>
-0.11

> <logD_PH1 [MProp:scalar:double]>
-0.07

> <logD_PH2 [MProp:scalar:double]>
0.18

> <logD_PH3 [MProp:scalar:double]>
0.9

> <logD_PH4 [MProp:scalar:double]>
1.69

> <logD_PH5 [MProp:scalar:double]>
2.06

> <logD_PH6 [MProp:scalar:double]>
2.13

> <logD_PH7 [MProp:scalar:double]>
2.13

> <logD_PH8 [MProp:scalar:double]>
2.13

> <logD_PH9 [MProp:scalar:double]>
2.13

> <logD_PH10 [MProp:scalar:double]>
2.13

> <logD_PH11 [MProp:scalar:double]>
2.13

> <logD_PH12 [MProp:scalar:double]>
2.13

> <logD_PH13 [MProp:scalar:double]>
2.13

> <logD_PH14 [MProp:scalar:double]>
2.13

> <HLB [MProp:scalar:double]>
4.09

> <IUPAC name>
naphthalen-2-amine

> <SMILES>
NC1=CC=C2C=CC=CC2=C1

> <InChI>
InChI=1S/C10H9N/c11-10-6-5-8-3-1-2-4-9(8)7-10/h1-7H,11H2

> <InChIKey>
JBIJLHTVPXGSAM-UHFFFAOYSA-N

> <Traditional name>
β naphthylamine

> <Common names>
2-aminonaftalen; 2-naftilamina; 2-naftylamin; 2-naftylamine; 2-naphthylamine (substance); 2-naphthylamine and its salts; 2-naphthylamine mustard; BNA; ccris 424; fast scarlet base B; fast scarlet base b; rcra waste number U168; usaf CB-22; β-naftalamin; β-naftilamina; β-naftylamin; β-naftyloamina

> <CAS Registry Numbers(R)>
91-59-8, 612-52-2

$$$$
1-Naphthylamine
  Mrv2222 01232613222D          

 11 12  0  0  0  0            999 V2000
   -0.7145   -0.4125    0.0000 C   0  0  0  0  0  0  0  0  0  0  0  0
   -0.7145   -1.2375    0.0000 C   0  0  0  0  0  0  0  0  0  0  0  0
    0.0000   -1.6500    0.0000 C   0  0  0  0  0  0  0  0  0  0  0  0
    0.7145   -1.2375    0.0000 C   0  0  0  0  0  0  0  0  0  0  0  0
    0.7145   -0.4125    0.0000 C   0  0  0  0  0  0  0  0  0  0  0  0
    0.0000    0.0000    0.0000 C   0  0  0  0  0  0  0  0  0  0  0  0
    1.4289    0.0000    0.0000 C   0  0  0  0  0  0  0  0  0  0  0  0
    2.1434   -0.4125    0.0000 C   0  0  0  0  0  0  0  0  0  0  0  0
    2.1434   -1.2375    0.0000 C   0  0  0  0  0  0  0  0  0  0  0  0
    1.4289   -1.6500    0.0000 C   0  0  0  0  0  0  0  0  0  0  0  0
    1.4289   -2.4750    0.0000 N   0  0  0  0  0  0  0  0  0  0  0  0
  1  2  1  0  0  0  0
  2  3  2  0  0  0  0
  3  4  1  0  0  0  0
  4  5  1  0  0  0  0
  5  6  1  0  0  0  0
  1  6  2  0  0  0  0
  5  7  2  0  0  0  0
  7  8  1  0  0  0  0
  8  9  2  0  0  0  0
  9 10  1  0  0  0  0
  4 10  2  0  0  0  0
 10 11  1  0  0  0  0
M  END
> <Molar mass [g/mol] [MProp:scalar:double]>
143.189

> <Exact mass [Da] [MProp:scalar:double]>
143.073499294

> <Formula>
C10H9N

> <Composition>
C (83.88%), H (6.34%), N (9.78%)

> <Lipinski's rule of five [MProp:scalar:boolean]>
true

> <Atom count [MProp:scalar:integer]>
20

> <Heavy atom count [MProp:scalar:integer]>
11

> <Asymmetric atom count [MProp:scalar:integer]>
0

> <Rotatable bond count [MProp:scalar:integer]>
0

> <Ring count [MProp:scalar:integer]>
2

> <Aromatic ring count [MProp:scalar:integer]>
2

> <Hetero ring count [MProp:scalar:integer]>
0

> <FSP3 [MProp:scalar:double]>
0.0

> <Hydrogen bond donor count [MProp:scalar:integer]>
1

> <Hydrogen bond acceptor count [MProp:scalar:integer]>
1

> <Formal charge [MProp:scalar:integer]>
0

> <Topological polar surface area [A^2] [MProp:scalar:double]>
26.02

> <Polarizability [A^3] [MProp:scalar:double]>
19.13

> <Molar refractivity [cm^3/mol] [MProp:scalar:double]>
47.21

> <Van der Waals volume [A^3] [MProp:scalar:double]>
136.24

> <Minimum projection area [A^2] [MProp:scalar:double]>
24.64

> <Maximum projection area [A^2] [MProp:scalar:double]>
54.4

> <Minimum projection radius [A] [MProp:scalar:double]>
4.03

> <Maximum projection radius [A] [MProp:scalar:double]>
4.72

> <Van der Waals surface area [A^2] [MProp:scalar:double]>
212.58

> <Solvent accessible surface area [A^2] [MProp:scalar:double]>
298.59

> <Strongest acidic pKa>
N/A

> <Strongest basic pKa [MProp:scalar:double]>
4.13

> <Isoelectric point>
N/A

> <Intrinsic solubility [logS] [MProp:scalar:double]>
-3.09

> <Solubility category>
High

> <logP [MProp:scalar:double]>
2.13

> <logD_PH0 [MProp:scalar:double]>
-0.11

> <logD_PH1 [MProp:scalar:double]>
-0.06

> <logD_PH2 [MProp:scalar:double]>
0.25

> <logD_PH3 [MProp:scalar:double]>
1.0

> <logD_PH4 [MProp:scalar:double]>
1.77

> <logD_PH5 [MProp:scalar:double]>
2.08

> <logD_PH6 [MProp:scalar:double]>
2.13

> <logD_PH7 [MProp:scalar:double]>
2.13

> <logD_PH8 [MProp:scalar:double]>
2.13

> <logD_PH9 [MProp:scalar:double]>
2.13

> <logD_PH10 [MProp:scalar:double]>
2.13

> <logD_PH11 [MProp:scalar:double]>
2.13

> <logD_PH12 [MProp:scalar:double]>
2.13

> <logD_PH13 [MProp:scalar:double]>
2.13

> <logD_PH14 [MProp:scalar:double]>
2.13

> <HLB [MProp:scalar:double]>
4.09

> <IUPAC name>
naphthalen-1-amine

> <SMILES>
NC1=C2C=CC=CC2=CC=C1

> <InChI>
InChI=1S/C10H9N/c11-10-7-3-5-8-4-1-2-6-9(8)10/h1-7H,11H2

> <InChIKey>
RUFPHBVGCFYCNW-UHFFFAOYSA-N

> <Traditional name>
α naphthylamine

> <Common names>
1-aminonaftalen; 1-naftilamina; 1-naftylamin; 1-naftylamine; 1-naththylamine; 1-naththylamine (substance); C.I. azoic diazo component 114; CI azoic diazo component 114; alfa-naftyloamina; alfanaftilamina; ccris 423; fast garnet B base; fast garnet base B; naphthalidam; naphthalidine; rcra waste number U167; α-naftalamin; α-naftylamin

> <CAS Registry Numbers(R)>
134-32-7, 25168-10-9, 53162-00-8

$$$$
N-nitrosodiphenylamine
  Mrv2222 01232613222D          

 15 16  0  0  0  0            999 V2000
    2.1434   -2.8875    0.0000 C   0  0  0  0  0  0  0  0  0  0  0  0
    1.4289   -2.4750    0.0000 C   0  0  0  0  0  0  0  0  0  0  0  0
    1.4289   -1.6500    0.0000 C   0  0  0  0  0  0  0  0  0  0  0  0
    2.1434   -1.2375    0.0000 C   0  0  0  0  0  0  0  0  0  0  0  0
    2.8579   -1.6500    0.0000 C   0  0  0  0  0  0  0  0  0  0  0  0
    2.8579   -2.4750    0.0000 C   0  0  0  0  0  0  0  0  0  0  0  0
    2.1434   -0.4125    0.0000 N   0  0  0  0  0  0  0  0  0  0  0  0
    2.8579    0.0000    0.0000 C   0  0  0  0  0  0  0  0  0  0  0  0
    2.8579    0.8250    0.0000 C   0  0  0  0  0  0  0  0  0  0  0  0
    3.5724    1.2375    0.0000 C   0  0  0  0  0  0  0  0  0  0  0  0
    4.2868    0.8250    0.0000 C   0  0  0  0  0  0  0  0  0  0  0  0
    4.2868    0.0000    0.0000 C   0  0  0  0  0  0  0  0  0  0  0  0
    3.5724   -0.4125    0.0000 C   0  0  0  0  0  0  0  0  0  0  0  0
    1.4289    0.0000    0.0000 N   0  0  0  0  0  0  0  0  0  0  0  0
    1.4289    0.8250    0.0000 O   0  0  0  0  0  0  0  0  0  0  0  0
  1  2  2  0  0  0  0
  2  3  1  0  0  0  0
  3  4  2  0  0  0  0
  4  5  1  0  0  0  0
  5  6  2  0  0  0  0
  1  6  1  0  0  0  0
  4  7  1  0  0  0  0
  7  8  1  0  0  0  0
  8  9  2  0  0  0  0
  9 10  1  0  0  0  0
 10 11  2  0  0  0  0
 11 12  1  0  0  0  0
 12 13  2  0  0  0  0
  8 13  1  0  0  0  0
  7 14  1  0  0  0  0
 14 15  2  0  0  0  0
M  END
> <Molar mass [g/mol] [MProp:scalar:double]>
198.225

> <Exact mass [Da] [MProp:scalar:double]>
198.07931295

> <Formula>
C12H10N2O

> <Composition>
C (72.71%), H (5.09%), N (14.13%), O (8.07%)

> <Lipinski's rule of five [MProp:scalar:boolean]>
true

> <Atom count [MProp:scalar:integer]>
25

> <Heavy atom count [MProp:scalar:integer]>
15

> <Asymmetric atom count [MProp:scalar:integer]>
0

> <Rotatable bond count [MProp:scalar:integer]>
3

> <Ring count [MProp:scalar:integer]>
2

> <Aromatic ring count [MProp:scalar:integer]>
2

> <Hetero ring count [MProp:scalar:integer]>
0

> <FSP3 [MProp:scalar:double]>
0.0

> <Hydrogen bond donor count [MProp:scalar:integer]>
0

> <Hydrogen bond acceptor count [MProp:scalar:integer]>
1

> <Formal charge [MProp:scalar:integer]>
0

> <Topological polar surface area [A^2] [MProp:scalar:double]>
32.67

> <Polarizability [A^3] [MProp:scalar:double]>
22.06

> <Molar refractivity [cm^3/mol] [MProp:scalar:double]>
59.61

> <Van der Waals volume [A^3] [MProp:scalar:double]>
179.42

> <Minimum projection area [A^2] [MProp:scalar:double]>
34.25

> <Maximum projection area [A^2] [MProp:scalar:double]>
62.46

> <Minimum projection radius [A] [MProp:scalar:double]>
4.28

> <Maximum projection radius [A] [MProp:scalar:double]>
5.93

> <Van der Waals surface area [A^2] [MProp:scalar:double]>
289.45

> <Solvent accessible surface area [A^2] [MProp:scalar:double]>
384.87

> <Strongest acidic pKa>
N/A

> <Strongest basic pKa>
N/A

> <Isoelectric point>
N/A

> <Intrinsic solubility [logS] [MProp:scalar:double]>
-3.33

> <Solubility category>
High

> <logP [MProp:scalar:double]>
3.35

> <logD_PH0 [MProp:scalar:double]>
3.35

> <logD_PH1 [MProp:scalar:double]>
3.35

> <logD_PH2 [MProp:scalar:double]>
3.35

> <logD_PH3 [MProp:scalar:double]>
3.35

> <logD_PH4 [MProp:scalar:double]>
3.35

> <logD_PH5 [MProp:scalar:double]>
3.35

> <logD_PH6 [MProp:scalar:double]>
3.35

> <logD_PH7 [MProp:scalar:double]>
3.35

> <logD_PH8 [MProp:scalar:double]>
3.35

> <logD_PH9 [MProp:scalar:double]>
3.35

> <logD_PH10 [MProp:scalar:double]>
3.35

> <logD_PH11 [MProp:scalar:double]>
3.35

> <logD_PH12 [MProp:scalar:double]>
3.35

> <logD_PH13 [MProp:scalar:double]>
3.35

> <logD_PH14 [MProp:scalar:double]>
3.35

> <HLB [MProp:scalar:double]>
10.57

> <IUPAC name>
N-nitroso-N-phenylaniline

> <SMILES>
O=NN(C1=CC=CC=C1)C1=CC=CC=C1

> <InChI>
InChI=1S/C12H10N2O/c15-13-14(11-7-3-1-4-8-11)12-9-5-2-6-10-12/h1-10H

> <InChIKey>
UBUCNCOMADRQHX-UHFFFAOYSA-N

> <Traditional name>
nitrosodiphenylamine

> <Common names>
N-nitrosodifenylamin; TJB; ccris 464; curetard A; delac J; difenylnitrosamin; diphenyl N-nitrosoamine; naugard tjb; ortard; redax; retarder J; sconoc; vulcalent A; vulcatard A; vulkalent A; vultrol

> <CAS Registry Numbers(R)>
86-30-6, 382165-80-2

$$$$
Venlafaxine
  Mrv2222 01232613222D          

 20 21  0  0  0  0            999 V2000
    1.4408    2.5420    0.0000 C   0  0  0  0  0  0  0  0  0  0  0  0
    2.1552    2.1295    0.0000 N   0  0  0  0  0  0  0  0  0  0  0  0
    2.8697    2.5420    0.0000 C   0  0  0  0  0  0  0  0  0  0  0  0
    2.1552    1.3045    0.0000 C   0  0  0  0  0  0  0  0  0  0  0  0
    2.8697    0.8920    0.0000 C   0  0  0  0  0  0  0  0  0  0  0  0
    2.8697    0.0670    0.0000 C   0  0  0  0  0  0  0  0  0  0  0  0
    3.5842   -0.3455    0.0000 C   0  0  0  0  0  0  0  0  0  0  0  0
    3.5842   -1.1705    0.0000 C   0  0  0  0  0  0  0  0  0  0  0  0
    2.8697   -1.5830    0.0000 C   0  0  0  0  0  0  0  0  0  0  0  0
    2.1552   -1.1705    0.0000 C   0  0  0  0  0  0  0  0  0  0  0  0
    2.1552   -0.3455    0.0000 C   0  0  0  0  0  0  0  0  0  0  0  0
    2.8697   -2.4080    0.0000 O   0  0  0  0  0  0  0  0  0  0  0  0
    2.1552   -2.8205    0.0000 C   0  0  0  0  0  0  0  0  0  0  0  0
    3.5842    1.3045    0.0000 C   0  0  0  0  0  0  0  0  0  0  0  0
    4.1145    1.9365    0.0000 C   0  0  0  0  0  0  0  0  0  0  0  0
    4.9269    1.7933    0.0000 C   0  0  0  0  0  0  0  0  0  0  0  0
    5.2091    1.0180    0.0000 C   0  0  0  0  0  0  0  0  0  0  0  0
    4.6788    0.3860    0.0000 C   0  0  0  0  0  0  0  0  0  0  0  0
    3.8663    0.5293    0.0000 C   0  0  0  0  0  0  0  0  0  0  0  0
    3.0539    1.9365    0.0000 O   0  0  0  0  0  0  0  0  0  0  0  0
  1  2  1  0  0  0  0
  2  3  1  0  0  0  0
  2  4  1  0  0  0  0
  4  5  1  0  0  0  0
  5  6  1  0  0  0  0
  6  7  2  0  0  0  0
  7  8  1  0  0  0  0
  8  9  2  0  0  0  0
  9 10  1  0  0  0  0
 10 11  2  0  0  0  0
  6 11  1  0  0  0  0
  9 12  1  0  0  0  0
 12 13  1  0  0  0  0
  5 14  1  0  0  0  0
 14 15  1  0  0  0  0
 15 16  1  0  0  0  0
 16 17  1  0  0  0  0
 17 18  1  0  0  0  0
 18 19  1  0  0  0  0
 14 19  1  0  0  0  0
 14 20  1  0  0  0  0
M  END
> <Molar mass [g/mol] [MProp:scalar:double]>
277.408

> <Exact mass [Da] [MProp:scalar:double]>
277.204179113

> <Formula>
C17H27NO2

> <Composition>
C (73.61%), H (9.81%), N (5.05%), O (11.53%)

> <Lipinski's rule of five [MProp:scalar:boolean]>
true

> <Atom count [MProp:scalar:integer]>
47

> <Heavy atom count [MProp:scalar:integer]>
20

> <Asymmetric atom count [MProp:scalar:integer]>
1

> <Rotatable bond count [MProp:scalar:integer]>
5

> <Ring count [MProp:scalar:integer]>
2

> <Aromatic ring count [MProp:scalar:integer]>
1

> <Hetero ring count [MProp:scalar:integer]>
0

> <FSP3 [MProp:scalar:double]>
0.65

> <Hydrogen bond donor count [MProp:scalar:integer]>
1

> <Hydrogen bond acceptor count [MProp:scalar:integer]>
3

> <Formal charge [MProp:scalar:integer]>
0

> <Topological polar surface area [A^2] [MProp:scalar:double]>
32.7

> <Polarizability [A^3] [MProp:scalar:double]>
32.61

> <Molar refractivity [cm^3/mol] [MProp:scalar:double]>
83.02

> <Van der Waals volume [A^3] [MProp:scalar:double]>
289.09

> <Minimum projection area [A^2] [MProp:scalar:double]>
52.62

> <Maximum projection area [A^2] [MProp:scalar:double]>
78.73

> <Minimum projection radius [A] [MProp:scalar:double]>
5.08

> <Maximum projection radius [A] [MProp:scalar:double]>
7.06

> <Van der Waals surface area [A^2] [MProp:scalar:double]>
496.83

> <Solvent accessible surface area [A^2] [MProp:scalar:double]>
505.16

> <Strongest acidic pKa [MProp:scalar:double]>
14.42

> <Strongest basic pKa [MProp:scalar:double]>
9.01

> <Isoelectric point [MProp:scalar:double]>
11.72

> <Intrinsic solubility [logS] [MProp:scalar:double]>
-2.58

> <Solubility category>
High

> <logP [MProp:scalar:double]>
2.74

> <logD_PH0 [MProp:scalar:double]>
-0.76

> <logD_PH1 [MProp:scalar:double]>
-0.76

> <logD_PH2 [MProp:scalar:double]>
-0.76

> <logD_PH3 [MProp:scalar:double]>
-0.76

> <logD_PH4 [MProp:scalar:double]>
-0.75

> <logD_PH5 [MProp:scalar:double]>
-0.65

> <logD_PH6 [MProp:scalar:double]>
-0.15

> <logD_PH7 [MProp:scalar:double]>
0.74

> <logD_PH8 [MProp:scalar:double]>
1.69

> <logD_PH9 [MProp:scalar:double]>
2.43

> <logD_PH10 [MProp:scalar:double]>
2.7

> <logD_PH11 [MProp:scalar:double]>
2.73

> <logD_PH12 [MProp:scalar:double]>
2.74

> <logD_PH13 [MProp:scalar:double]>
2.72

> <logD_PH14 [MProp:scalar:double]>
2.6

> <HLB [MProp:scalar:double]>
11.37

> <IUPAC name>
1-[2-(dimethylamino)-1-(4-methoxyphenyl)ethyl]cyclohexan-1-ol

> <SMILES>
COC1=CC=C(C=C1)C(CN(C)C)C1(O)CCCCC1

> <InChI>
InChI=1/C17H27NO2/c1-18(2)13-16(17(19)11-5-4-6-12-17)14-7-9-15(20-3)10-8-14/h7-10,16,19H,4-6,11-13H2,1-3H3

> <InChIKey>
PNVNVHUZROJLTJ-UHFFFAOYNA-N

> <Traditional name>
venlafaxine

> <Common names>
VNF; dobupal; efectin; efexor; effexor; effexor XR; elafax; sila-venlafaxine; trevilor; vandral; venlafaxin; venlafaxina; venlafaxine; venlafaxine (product); venlafaxine (substance); venlafaxine preparation; venlafaxinum; venlafexine

> <CAS Registry Numbers(R)>
93413-69-5, 540726-98-5

$$$$
Kanamycina
  Mrv2222 01232613222D          

 33 35  0  0  1  0            999 V2000
    1.4289   -1.6500    0.0000 C   0  0  0  0  0  0  0  0  0  0  0  0
    1.4289   -2.4750    0.0000 C   0  0  2  0  0  0  0  0  0  0  0  0
    2.1434   -2.8875    0.0000 C   0  0  1  0  0  0  0  0  0  0  0  0
    2.8579   -2.4750    0.0000 C   0  0  2  0  0  0  0  0  0  0  0  0
    2.8579   -1.6500    0.0000 C   0  0  1  0  0  0  0  0  0  0  0  0
    2.1434   -1.2375    0.0000 C   0  0  1  0  0  0  0  0  0  0  0  0
    2.1434   -0.4125    0.0000 N   0  0  0  0  0  0  0  0  0  0  0  0
    3.5724   -1.2375    0.0000 O   0  0  0  0  0  0  0  0  0  0  0  0
    4.2868   -1.6500    0.0000 C   0  0  2  0  0  0  0  0  0  0  0  0
    5.0013   -1.2375    0.0000 C   0  0  1  0  0  0  0  0  0  0  0  0
    5.7158   -1.6500    0.0000 C   0  0  2  0  0  0  0  0  0  0  0  0
    5.7158   -2.4750    0.0000 C   0  0  1  0  0  0  0  0  0  0  0  0
    5.0013   -2.8875    0.0000 C   0  0  2  0  0  0  0  0  0  0  0  0
    4.2868   -2.4750    0.0000 O   0  0  0  0  0  0  0  0  0  0  0  0
    5.0013   -3.7125    0.0000 C   0  0  0  0  0  0  0  0  0  0  0  0
    5.7158   -4.1250    0.0000 N   0  0  0  0  0  0  0  0  0  0  0  0
    6.4302   -2.8875    0.0000 O   0  0  0  0  0  0  0  0  0  0  0  0
    6.4302   -1.2375    0.0000 O   0  0  0  0  0  0  0  0  0  0  0  0
    5.0013   -0.4125    0.0000 O   0  0  0  0  0  0  0  0  0  0  0  0
    3.5724   -2.8875    0.0000 O   0  0  0  0  0  0  0  0  0  0  0  0
    2.1434   -3.7125    0.0000 O   0  0  0  0  0  0  0  0  0  0  0  0
    1.4289   -4.1250    0.0000 C   0  0  2  0  0  0  0  0  0  0  0  0
    1.4289   -4.9500    0.0000 C   0  0  1  0  0  0  0  0  0  0  0  0
    0.7145   -5.3625    0.0000 C   0  0  2  0  0  0  0  0  0  0  0  0
    0.0000   -4.9500    0.0000 C   0  0  1  0  0  0  0  0  0  0  0  0
    0.0000   -4.1250    0.0000 C   0  0  2  0  0  0  0  0  0  0  0  0
    0.7145   -3.7125    0.0000 O   0  0  0  0  0  0  0  0  0  0  0  0
   -0.7145   -3.7125    0.0000 C   0  0  0  0  0  0  0  0  0  0  0  0
   -1.4289   -4.1250    0.0000 O   0  0  0  0  0  0  0  0  0  0  0  0
   -0.7145   -5.3625    0.0000 O   0  0  0  0  0  0  0  0  0  0  0  0
    0.7145   -6.1875    0.0000 N   0  0  0  0  0  0  0  0  0  0  0  0
    2.1434   -5.3625    0.0000 O   0  0  0  0  0  0  0  0  0  0  0  0
    0.7145   -2.8875    0.0000 N   0  0  0  0  0  0  0  0  0  0  0  0
  2  1  1  0  0  0  0
  3  2  1  0  0  0  0
  3  4  1  0  0  0  0
  4  5  1  0  0  0  0
  5  6  1  0  0  0  0
  6  1  1  0  0  0  0
  6  7  1  6  0  0  0
  5  8  1  1  0  0  0
  9  8  1  6  0  0  0
 10  9  1  0  0  0  0
 10 11  1  0  0  0  0
 11 12  1  0  0  0  0
 12 13  1  0  0  0  0
 13 14  1  0  0  0  0
  9 14  1  0  0  0  0
 13 15  1  1  0  0  0
 15 16  1  0  0  0  0
 12 17  1  6  0  0  0
 11 18  1  1  0  0  0
 10 19  1  6  0  0  0
  4 20  1  6  0  0  0
  3 21  1  1  0  0  0
 22 21  1  6  0  0  0
 23 22  1  0  0  0  0
 23 24  1  0  0  0  0
 24 25  1  0  0  0  0
 25 26  1  0  0  0  0
 26 27  1  0  0  0  0
 22 27  1  0  0  0  0
 26 28  1  1  0  0  0
 28 29  1  0  0  0  0
 25 30  1  6  0  0  0
 24 31  1  1  0  0  0
 23 32  1  6  0  0  0
  2 33  1  6  0  0  0
M  END
> <Molar mass [g/mol] [MProp:scalar:double]>
484.503

> <Exact mass [Da] [MProp:scalar:double]>
484.238057995

> <Formula>
C18H36N4O11

> <Composition>
C (44.62%), H (7.49%), N (11.56%), O (36.32%)

> <Lipinski's rule of five [MProp:scalar:boolean]>
false

> <Atom count [MProp:scalar:integer]>
69

> <Heavy atom count [MProp:scalar:integer]>
33

> <Asymmetric atom count [MProp:scalar:integer]>
15

> <Rotatable bond count [MProp:scalar:integer]>
6

> <Ring count [MProp:scalar:integer]>
3

> <Aromatic ring count [MProp:scalar:integer]>
0

> <Hetero ring count [MProp:scalar:integer]>
2

> <FSP3 [MProp:scalar:double]>
1.0

> <Hydrogen bond donor count [MProp:scalar:integer]>
11

> <Hydrogen bond acceptor count [MProp:scalar:integer]>
15

> <Formal charge [MProp:scalar:integer]>
0

> <Topological polar surface area [A^2] [MProp:scalar:double]>
282.61

> <Polarizability [A^3] [MProp:scalar:double]>
45.27

> <Molar refractivity [cm^3/mol] [MProp:scalar:double]>
106.13

> <Van der Waals volume [A^3] [MProp:scalar:double]>
429.12

> <Minimum projection area [A^2] [MProp:scalar:double]>
62.61

> <Maximum projection area [A^2] [MProp:scalar:double]>
119.08

> <Minimum projection radius [A] [MProp:scalar:double]>
5.37

> <Maximum projection radius [A] [MProp:scalar:double]>
8.35

> <Van der Waals surface area [A^2] [MProp:scalar:double]>
658.21

> <Solvent accessible surface area [A^2] [MProp:scalar:double]>
533.91

> <Strongest acidic pKa [MProp:scalar:double]>
12.05

> <Strongest basic pKa [MProp:scalar:double]>
9.34

> <Isoelectric point [MProp:scalar:double]>
10.65

> <Intrinsic solubility [logS] [MProp:scalar:double]>
0.24

> <Solubility category>
High

> <logP [MProp:scalar:double]>
-7.06

> <logD_PH0 [MProp:scalar:double]>
-19.19

> <logD_PH1 [MProp:scalar:double]>
-19.19

> <logD_PH2 [MProp:scalar:double]>
-19.19

> <logD_PH3 [MProp:scalar:double]>
-19.17

> <logD_PH4 [MProp:scalar:double]>
-19.03

> <logD_PH5 [MProp:scalar:double]>
-18.3

> <logD_PH6 [MProp:scalar:double]>
-16.32

> <logD_PH7 [MProp:scalar:double]>
-13.02

> <logD_PH8 [MProp:scalar:double]>
-9.8

> <logD_PH9 [MProp:scalar:double]>
-7.76

> <logD_PH10 [MProp:scalar:double]>
-7.16

> <logD_PH11 [MProp:scalar:double]>
-7.1

> <logD_PH12 [MProp:scalar:double]>
-7.35

> <logD_PH13 [MProp:scalar:double]>
-8.52

> <logD_PH14 [MProp:scalar:double]>
-10.97

> <HLB [MProp:scalar:double]>
40.5

> <IUPAC name>
(2R,3S,4S,5R,6R)-2-(aminomethyl)-6-{[(1R,2R,3S,4R,6S)-4,6-diamino-3-{[(2S,3R,4S,5S,6R)-4-amino-3,5-dihydroxy-6-(hydroxymethyl)oxan-2-yl]oxy}-2-hydroxycyclohexyl]oxy}oxane-3,4,5-triol

> <SMILES>
NC[C@H]1O[C@H](O[C@@H]2[C@@H](N)C[C@@H](N)[C@H](O[C@H]3O[C@H](CO)[C@@H](O)[C@H](N)[C@H]3O)[C@H]2O)[C@H](O)[C@@H](O)[C@@H]1O

> <InChI>
InChI=1S/C18H36N4O11/c19-2-6-10(25)12(27)13(28)18(30-6)33-16-5(21)1-4(20)15(14(16)29)32-17-11(26)8(22)9(24)7(3-23)31-17/h4-18,23-29H,1-3,19-22H2/t4-,5-,6-,7-,8+,9-,10-,11-,12+,13-,14-,15+,16-,17-,18-/m1/s1

> <InChIKey>
SBUJHOSQTJFQJX-NOAMYHISSA-N

> <Traditional name>
kanamycin

> <Common names>
KAN; KM (the antibiotic); aminodeoxykanamycin; kanamicina; kanamycin; kanamycin (product); kanamycin (substance); kanamycin A; kanamycin a; kanamycin base; kanamycin preparation; kanamycin product; kanamycin sulfate; kanamycin sulfate (substance); kanamycin sulfate preparation; kanamycin sulphate; kanamycine; kanamycinum; kenamycin A; klebcil; nebramycin factor 5; 卡那霉素

> <CAS Registry Numbers(R)>
8063-07-8, 59-01-8, 1174286-24-8

$$$$
Streptomycin
  Mrv2222 01232613222D          

 40 42  0  0  1  0            999 V2000
    3.4888   -1.5291    0.0000 C   0  0  0  0  0  0  0  0  0  0  0  0
    2.7041   -1.7840    0.0000 C   0  0  1  0  0  0  0  0  0  0  0  0
    2.0367   -1.2991    0.0000 C   0  0  1  0  0  0  0  0  0  0  0  0
    1.3693   -1.7840    0.0000 C   0  0  2  0  0  0  0  0  0  0  0  0
    1.6242   -2.5687    0.0000 C   0  0  1  0  0  0  0  0  0  0  0  0
    2.4492   -2.5687    0.0000 O   0  0  0  0  0  0  0  0  0  0  0  0
    1.1393   -3.2361    0.0000 O   0  0  0  0  0  0  0  0  0  0  0  0
    1.4748   -3.9898    0.0000 C   0  0  2  0  0  0  0  0  0  0  0  0
    0.9899   -4.6572    0.0000 C   0  0  2  0  0  0  0  0  0  0  0  0
    1.3255   -5.4109    0.0000 C   0  0  1  0  0  0  0  0  0  0  0  0
    2.1460   -5.4971    0.0000 C   0  0  2  0  0  0  0  0  0  0  0  0
    2.6309   -4.8297    0.0000 C   0  0  1  0  0  0  0  0  0  0  0  0
    2.2953   -4.0760    0.0000 C   0  0  1  0  0  0  0  0  0  0  0  0
    2.7802   -3.4086    0.0000 O   0  0  0  0  0  0  0  0  0  0  0  0
    3.4514   -4.9159    0.0000 O   0  0  0  0  0  0  0  0  0  0  0  0
    2.4815   -6.2508    0.0000 N   0  0  0  0  0  0  0  0  0  0  0  0
    3.3020   -6.3370    0.0000 C   0  0  0  0  0  0  0  0  0  0  0  0
    3.7869   -5.6696    0.0000 N   0  0  0  0  0  0  0  0  0  0  0  0
    3.6376   -7.0907    0.0000 N   0  0  0  0  0  0  0  0  0  0  0  0
    0.8406   -6.0783    0.0000 O   0  0  0  0  0  0  0  0  0  0  0  0
    0.1694   -4.5710    0.0000 N   0  0  0  0  0  0  0  0  0  0  0  0
   -0.3155   -5.2384    0.0000 C   0  0  0  0  0  0  0  0  0  0  0  0
    0.0201   -5.9921    0.0000 N   0  0  0  0  0  0  0  0  0  0  0  0
   -1.1360   -5.1522    0.0000 N   0  0  0  0  0  0  0  0  0  0  0  0
    0.5846   -1.5291    0.0000 O   0  0  0  0  0  0  0  0  0  0  0  0
    0.4131   -0.7221    0.0000 C   0  0  1  0  0  0  0  0  0  0  0  0
   -0.3715   -0.4672    0.0000 C   0  0  2  0  0  0  0  0  0  0  0  0
   -0.5430    0.3398    0.0000 C   0  0  1  0  0  0  0  0  0  0  0  0
    0.0701    0.8918    0.0000 C   0  0  2  0  0  0  0  0  0  0  0  0
    0.8547    0.6369    0.0000 C   0  0  1  0  0  0  0  0  0  0  0  0
    1.0262   -0.1701    0.0000 O   0  0  0  0  0  0  0  0  0  0  0  0
    1.4678    1.1889    0.0000 C   0  0  0  0  0  0  0  0  0  0  0  0
    1.2963    1.9959    0.0000 O   0  0  0  0  0  0  0  0  0  0  0  0
   -0.1015    1.6988    0.0000 O   0  0  0  0  0  0  0  0  0  0  0  0
   -1.3277    0.5947    0.0000 O   0  0  0  0  0  0  0  0  0  0  0  0
   -0.9846   -1.0192    0.0000 N   0  0  0  0  0  0  0  0  0  0  0  0
   -1.7692   -0.7643    0.0000 C   0  0  0  0  0  0  0  0  0  0  0  0
    1.6317   -0.5804    0.0000 C   0  0  0  0  0  0  0  0  0  0  0  0
    2.0517    0.1298    0.0000 O   0  0  0  0  0  0  0  0  0  0  0  0
    2.4417   -0.5804    0.0000 O   0  0  0  0  0  0  0  0  0  0  0  0
  2  1  1  6  0  0  0
  3  2  1  0  0  0  0
  3  4  1  0  0  0  0
  4  5  1  0  0  0  0
  5  6  1  0  0  0  0
  2  6  1  0  0  0  0
  5  7  1  1  0  0  0
  8  7  1  1  0  0  0
  8  9  1  0  0  0  0
  9 10  1  0  0  0  0
 10 11  1  0  0  0  0
 12 11  1  0  0  0  0
 13 12  1  0  0  0  0
  8 13  1  0  0  0  0
 13 14  1  6  0  0  0
 12 15  1  1  0  0  0
 11 16  1  6  0  0  0
 16 17  1  0  0  0  0
 17 18  2  0  0  0  0
 17 19  1  0  0  0  0
 10 20  1  1  0  0  0
  9 21  1  6  0  0  0
 21 22  1  0  0  0  0
 22 23  2  0  0  0  0
 22 24  1  0  0  0  0
  4 25  1  6  0  0  0
 26 25  1  1  0  0  0
 27 26  1  0  0  0  0
 27 28  1  0  0  0  0
 28 29  1  0  0  0  0
 29 30  1  0  0  0  0
 30 31  1  0  0  0  0
 26 31  1  0  0  0  0
 30 32  1  6  0  0  0
 32 33  1  0  0  0  0
 29 34  1  1  0  0  0
 28 35  1  6  0  0  0
 27 36  1  1  0  0  0
 36 37  1  0  0  0  0
  3 38  1  1  0  0  0
 38 39  2  0  0  0  0
  3 40  1  6  0  0  0
M  END
> <Molar mass [g/mol] [MProp:scalar:double]>
581.58

> <Exact mass [Da] [MProp:scalar:double]>
581.265669724

> <Formula>
C21H39N7O12

> <Composition>
C (43.37%), H (6.76%), N (16.86%), O (33.01%)

> <Lipinski's rule of five [MProp:scalar:boolean]>
false

> <Atom count [MProp:scalar:integer]>
79

> <Heavy atom count [MProp:scalar:integer]>
40

> <Asymmetric atom count [MProp:scalar:integer]>
15

> <Rotatable bond count [MProp:scalar:integer]>
9

> <Ring count [MProp:scalar:integer]>
3

> <Aromatic ring count [MProp:scalar:integer]>
0

> <Hetero ring count [MProp:scalar:integer]>
2

> <FSP3 [MProp:scalar:double]>
0.86

> <Hydrogen bond donor count [MProp:scalar:integer]>
14

> <Hydrogen bond acceptor count [MProp:scalar:integer]>
19

> <Formal charge [MProp:scalar:integer]>
0

> <Topological polar surface area [A^2] [MProp:scalar:double]>
331.43

> <Polarizability [A^3] [MProp:scalar:double]>
52.5

> <Molar refractivity [cm^3/mol] [MProp:scalar:double]>
149.47

> <Van der Waals volume [A^3] [MProp:scalar:double]>
502.93

> <Minimum projection area [A^2] [MProp:scalar:double]>
85.73

> <Maximum projection area [A^2] [MProp:scalar:double]>
121.6

> <Minimum projection radius [A] [MProp:scalar:double]>
6.01

> <Maximum projection radius [A] [MProp:scalar:double]>
8.88

> <Van der Waals surface area [A^2] [MProp:scalar:double]>
778.59

> <Solvent accessible surface area [A^2] [MProp:scalar:double]>
640.11

> <Strongest acidic pKa [MProp:scalar:double]>
10.88

> <Strongest basic pKa [MProp:scalar:double]>
11.48

> <Isoelectric point [MProp:scalar:double]>
11.3

> <Intrinsic solubility [logS] [MProp:scalar:double]>
-0.38

> <Solubility category>
High

> <logP [MProp:scalar:double]>
-7.58

> <logD_PH0 [MProp:scalar:double]>
-14.73

> <logD_PH1 [MProp:scalar:double]>
-14.73

> <logD_PH2 [MProp:scalar:double]>
-14.73

> <logD_PH3 [MProp:scalar:double]>
-14.72

> <logD_PH4 [MProp:scalar:double]>
-14.67

> <logD_PH5 [MProp:scalar:double]>
-14.34

> <logD_PH6 [MProp:scalar:double]>
-13.54

> <logD_PH7 [MProp:scalar:double]>
-12.58

> <logD_PH8 [MProp:scalar:double]>
-11.63

> <logD_PH9 [MProp:scalar:double]>
-10.46

> <logD_PH10 [MProp:scalar:double]>
-8.78

> <logD_PH11 [MProp:scalar:double]>
-7.49

> <logD_PH12 [MProp:scalar:double]>
-7.58

> <logD_PH13 [MProp:scalar:double]>
-8.42

> <logD_PH14 [MProp:scalar:double]>
-9.22

> <HLB [MProp:scalar:double]>
34.88

> <IUPAC name>
N-[(1S,2R,3R,4S,5R,6R)-3-carbamimidamido-6-{[(2R,3R,4R,5S)-3-{[(2S,3S,4S,5R,6S)-4,5-dihydroxy-6-(hydroxymethyl)-3-(methylamino)oxan-2-yl]oxy}-4-formyl-4-hydroxy-5-methyloxolan-2-yl]oxy}-2,4,5-trihydroxycyclohexyl]guanidine

> <SMILES>
CN[C@H]1[C@H](O)[C@@H](O)[C@H](CO)O[C@H]1O[C@H]1[C@H](O[C@H]2[C@H](O)[C@@H](O)[C@H](NC(N)=N)[C@@H](O)[C@@H]2NC(N)=N)O[C@@H](C)[C@]1(O)C=O

> <InChI>
InChI=1S/C21H39N7O12/c1-5-21(36,4-30)16(40-17-9(26-2)13(34)10(31)6(3-29)38-17)18(37-5)39-15-8(28-20(24)25)11(32)7(27-19(22)23)12(33)14(15)35/h4-18,26,29,31-36H,3H2,1-2H3,(H4,22,23,27)(H4,24,25,28)/t5-,6-,7+,8-,9-,10-,11+,12-,13-,14-,15+,16-,17-,18-,21-/m0/s1

> <InChIKey>
UCSJYZPVAKXKNQ-HZYVHMACSA-N

> <Traditional name>
N-[(1S,2R,3R,4S,5R,6R)-3-carbamimidamido-6-{[(2R,3R,4R,5S)-3-{[(2S,3S,4S,5R,6S)-4,5-dihydroxy-6-(hydroxymethyl)-3-(methylamino)oxan-2-yl]oxy}-4-formyl-4-hydroxy-5-methyloxolan-2-yl]oxy}-2,4,5-trihydroxycyclohexyl]guanidine

> <Common names>
kantrex; 链霉素

> <CAS Registry Numbers(R)>
57-92-1

$$$$
Amikacin
  Mrv2222 01232613222D          

 40 42  0  0  1  0            999 V2000
    2.1434   -2.8875    0.0000 C   0  0  0  0  0  0  0  0  0  0  0  0
    1.4289   -3.3000    0.0000 C   0  0  1  0  0  0  0  0  0  0  0  0
    1.4289   -4.1250    0.0000 C   0  0  2  0  0  0  0  0  0  0  0  0
    2.1434   -4.5375    0.0000 C   0  0  1  0  0  0  0  0  0  0  0  0
    2.8579   -4.1250    0.0000 C   0  0  2  0  0  0  0  0  0  0  0  0
    2.8579   -3.3000    0.0000 C   0  0  2  0  0  0  0  0  0  0  0  0
    3.5724   -2.8875    0.0000 N   0  0  0  0  0  0  0  0  0  0  0  0
    4.2868   -3.3000    0.0000 C   0  0  0  0  0  0  0  0  0  0  0  0
    4.2868   -4.1250    0.0000 O   0  0  0  0  0  0  0  0  0  0  0  0
    5.0013   -2.8875    0.0000 C   0  0  2  0  0  0  0  0  0  0  0  0
    5.7158   -3.3000    0.0000 C   0  0  0  0  0  0  0  0  0  0  0  0
    6.4302   -2.8875    0.0000 C   0  0  0  0  0  0  0  0  0  0  0  0
    7.1447   -3.3000    0.0000 N   0  0  0  0  0  0  0  0  0  0  0  0
    5.0013   -2.0625    0.0000 O   0  0  0  0  0  0  0  0  0  0  0  0
    3.5724   -4.5375    0.0000 O   0  0  0  0  0  0  0  0  0  0  0  0
    3.5724   -5.3625    0.0000 C   0  0  2  0  0  0  0  0  0  0  0  0
    4.2868   -5.7750    0.0000 C   0  0  1  0  0  0  0  0  0  0  0  0
    4.2868   -6.6000    0.0000 C   0  0  2  0  0  0  0  0  0  0  0  0
    3.5724   -7.0125    0.0000 C   0  0  1  0  0  0  0  0  0  0  0  0
    2.8579   -6.6000    0.0000 C   0  0  2  0  0  0  0  0  0  0  0  0
    2.8579   -5.7750    0.0000 O   0  0  0  0  0  0  0  0  0  0  0  0
    2.1434   -7.0125    0.0000 C   0  0  0  0  0  0  0  0  0  0  0  0
    1.4289   -6.6000    0.0000 O   0  0  0  0  0  0  0  0  0  0  0  0
    3.5724   -7.8375    0.0000 O   0  0  0  0  0  0  0  0  0  0  0  0
    5.0013   -7.0125    0.0000 N   0  0  0  0  0  0  0  0  0  0  0  0
    5.0013   -5.3625    0.0000 O   0  0  0  0  0  0  0  0  0  0  0  0
    2.1434   -5.3625    0.0000 O   0  0  0  0  0  0  0  0  0  0  0  0
    0.7145   -4.5375    0.0000 O   0  0  0  0  0  0  0  0  0  0  0  0
    0.0000   -4.1250    0.0000 C   0  0  2  0  0  0  0  0  0  0  0  0
   -0.7145   -4.5375    0.0000 C   0  0  1  0  0  0  0  0  0  0  0  0
   -1.4289   -4.1250    0.0000 C   0  0  2  0  0  0  0  0  0  0  0  0
   -1.4289   -3.3000    0.0000 C   0  0  1  0  0  0  0  0  0  0  0  0
   -0.7145   -2.8875    0.0000 C   0  0  2  0  0  0  0  0  0  0  0  0
    0.0000   -3.3000    0.0000 O   0  0  0  0  0  0  0  0  0  0  0  0
   -0.7145   -2.0625    0.0000 C   0  0  0  0  0  0  0  0  0  0  0  0
   -1.4289   -1.6500    0.0000 N   0  0  0  0  0  0  0  0  0  0  0  0
   -2.1434   -2.8875    0.0000 O   0  0  0  0  0  0  0  0  0  0  0  0
   -2.1434   -4.5375    0.0000 O   0  0  0  0  0  0  0  0  0  0  0  0
   -0.7145   -5.3625    0.0000 O   0  0  0  0  0  0  0  0  0  0  0  0
    0.7145   -2.8875    0.0000 N   0  0  0  0  0  0  0  0  0  0  0  0
  2  1  1  0  0  0  0
  3  2  1  0  0  0  0
  3  4  1  0  0  0  0
  4  5  1  0  0  0  0
  5  6  1  0  0  0  0
  6  1  1  0  0  0  0
  6  7  1  1  0  0  0
  7  8  1  0  0  0  0
  8  9  2  0  0  0  0
 10  8  1  0  0  0  0
 10 11  1  0  0  0  0
 11 12  1  0  0  0  0
 12 13  1  0  0  0  0
 10 14  1  1  0  0  0
  5 15  1  6  0  0  0
 16 15  1  6  0  0  0
 17 16  1  0  0  0  0
 17 18  1  0  0  0  0
 18 19  1  0  0  0  0
 19 20  1  0  0  0  0
 20 21  1  0  0  0  0
 16 21  1  0  0  0  0
 20 22  1  1  0  0  0
 22 23  1  0  0  0  0
 19 24  1  6  0  0  0
 18 25  1  1  0  0  0
 17 26  1  6  0  0  0
  4 27  1  1  0  0  0
  3 28  1  6  0  0  0
 29 28  1  6  0  0  0
 30 29  1  0  0  0  0
 30 31  1  0  0  0  0
 31 32  1  0  0  0  0
 32 33  1  0  0  0  0
 33 34  1  0  0  0  0
 29 34  1  0  0  0  0
 33 35  1  1  0  0  0
 35 36  1  0  0  0  0
 32 37  1  6  0  0  0
 31 38  1  1  0  0  0
 30 39  1  6  0  0  0
  2 40  1  1  0  0  0
M  END
> <Molar mass [g/mol] [MProp:scalar:double]>
585.608

> <Exact mass [Da] [MProp:scalar:double]>
585.285736465

> <Formula>
C22H43N5O13

> <Composition>
C (45.12%), H (7.40%), N (11.96%), O (35.52%)

> <Lipinski's rule of five [MProp:scalar:boolean]>
false

> <Atom count [MProp:scalar:integer]>
83

> <Heavy atom count [MProp:scalar:integer]>
40

> <Asymmetric atom count [MProp:scalar:integer]>
16

> <Rotatable bond count [MProp:scalar:integer]>
10

> <Ring count [MProp:scalar:integer]>
3

> <Aromatic ring count [MProp:scalar:integer]>
0

> <Hetero ring count [MProp:scalar:integer]>
2

> <FSP3 [MProp:scalar:double]>
0.95

> <Hydrogen bond donor count [MProp:scalar:integer]>
13

> <Hydrogen bond acceptor count [MProp:scalar:integer]>
17

> <Formal charge [MProp:scalar:integer]>
0

> <Topological polar surface area [A^2] [MProp:scalar:double]>
331.94

> <Polarizability [A^3] [MProp:scalar:double]>
54.55

> <Molar refractivity [cm^3/mol] [MProp:scalar:double]>
129.84

> <Van der Waals volume [A^3] [MProp:scalar:double]>
520.15

> <Minimum projection area [A^2] [MProp:scalar:double]>
81.37

> <Maximum projection area [A^2] [MProp:scalar:double]>
128.14

> <Minimum projection radius [A] [MProp:scalar:double]>
6.73

> <Maximum projection radius [A] [MProp:scalar:double]>
9.47

> <Van der Waals surface area [A^2] [MProp:scalar:double]>
805.02

> <Solvent accessible surface area [A^2] [MProp:scalar:double]>
663.26

> <Strongest acidic pKa [MProp:scalar:double]>
12.16

> <Strongest basic pKa [MProp:scalar:double]>
9.61

> <Isoelectric point [MProp:scalar:double]>
10.71

> <Intrinsic solubility [logS] [MProp:scalar:double]>
0.41

> <Solubility category>
High

> <logP [MProp:scalar:double]>
-8.58

> <logD_PH0 [MProp:scalar:double]>
-23.47

> <logD_PH1 [MProp:scalar:double]>
-22.71

> <logD_PH2 [MProp:scalar:double]>
-21.77

> <logD_PH3 [MProp:scalar:double]>
-21.03

> <logD_PH4 [MProp:scalar:double]>
-20.73

> <logD_PH5 [MProp:scalar:double]>
-20.46

> <logD_PH6 [MProp:scalar:double]>
-19.15

> <logD_PH7 [MProp:scalar:double]>
-16.17

> <logD_PH8 [MProp:scalar:double]>
-12.56

> <logD_PH9 [MProp:scalar:double]>
-9.84

> <logD_PH10 [MProp:scalar:double]>
-8.8

> <logD_PH11 [MProp:scalar:double]>
-8.64

> <logD_PH12 [MProp:scalar:double]>
-8.84

> <logD_PH13 [MProp:scalar:double]>
-9.86

> <logD_PH14 [MProp:scalar:double]>
-11.89

> <HLB [MProp:scalar:double]>
46.27

> <IUPAC name>
(2S)-4-amino-N-[(1R,2S,3S,4R,5S)-5-amino-2-{[(2S,3R,4S,5S,6R)-4-amino-3,5-dihydroxy-6-(hydroxymethyl)oxan-2-yl]oxy}-4-{[(2R,3R,4S,5S,6R)-6-(aminomethyl)-3,4,5-trihydroxyoxan-2-yl]oxy}-3-hydroxycyclohexyl]-2-hydroxybutanamide

> <SMILES>
NCC[C@H](O)C(=O)N[C@@H]1C[C@H](N)[C@@H](O[C@H]2O[C@H](CN)[C@@H](O)[C@H](O)[C@H]2O)[C@H](O)[C@H]1O[C@H]1O[C@H](CO)[C@@H](O)[C@H](N)[C@H]1O

> <InChI>
InChI=1S/C22H43N5O13/c23-2-1-8(29)20(36)27-7-3-6(25)18(39-22-16(34)15(33)13(31)9(4-24)37-22)17(35)19(7)40-21-14(32)11(26)12(30)10(5-28)38-21/h6-19,21-22,28-35H,1-5,23-26H2,(H,27,36)/t6-,7-,8-,9+,10+,11-,12+,13+,14+,15-,16+,17-,18+,19-,21+,22+/m0/s1

> <InChIKey>
LKCWBDHBTVXHDL-RMDFUYIESA-N

> <Traditional name>
amikacin

> <Common names>
AMK; BB K8; BB-K8; a.m.k; amicacin; amiglyde-V; amika; amikacin; amikacin (product); amikacin (substance); amikacin - chemical; amikacin base; amikacin dihydrate; amikacin preparation; amikacin sulfate; amikacin sulfate (substance); amikacin sulfate preparation; amikacin sulphate; amikacina; amikacina [inn-spanish]; amikacina medical; amikacina normon; amikacine; amikacine [inn-french]; amikacinum; amikafur; amikalem; amikason's; amikavet; amikayect; amiklin; amitrex; amukin; antibiotic BB-K 8; antibiotic BB-K8; antibiotic BB-K8 sulfate; apothecon brand of amikacin sulfate; arikace; bbk 8; biclin; biklin; biodacyn; briclin; bristol myers squibb brand of amikacin sulfate; chemacin; collins brand of amikacin sulfate; cryopharma brand of amikacin sulfate; fabianol; fustery brand of amikacin sulfate; galen brand of amikacin sulfate; gamikal; grossmann brand of amikacin sulfate; kaminax; kanbine; kancin-gap; lemery brand of amikacin sulfate; likacin; lukadin; mead johnson brand of amikacin sulfate; medical brand of amikacin sulfate; medical, amikacina; mikavir; norman brand of amikacin sulfate; normon, amikacina; oprad; pisa brand of amikacin sulfate; rovi brand of amikacin sulfate; son brand of amikacin sulfate; son's brand of amikacin sulfate; sulfate, amikacin; yectamid; 阿米卡星

> <CAS Registry Numbers(R)>
37517-28-5

$$$$
Arbekacin
  Mrv2222 01232613222D          

 38 40  0  0  1  0            999 V2000
   -2.1434    1.2375    0.0000 C   0  0  0  0  0  0  0  0  0  0  0  0
   -2.8579    0.8250    0.0000 C   0  0  0  0  0  0  0  0  0  0  0  0
   -2.8579    0.0000    0.0000 C   0  0  2  0  0  0  0  0  0  0  0  0
   -2.1434   -0.4125    0.0000 C   0  0  2  0  0  0  0  0  0  0  0  0
   -1.4289    0.0000    0.0000 O   0  0  0  0  0  0  0  0  0  0  0  0
   -1.4289    0.8250    0.0000 C   0  0  2  0  0  0  0  0  0  0  0  0
   -0.7145    1.2375    0.0000 C   0  0  0  0  0  0  0  0  0  0  0  0
    0.0000    0.8250    0.0000 N   0  0  0  0  0  0  0  0  0  0  0  0
   -2.1434   -1.2375    0.0000 O   0  0  0  0  0  0  0  0  0  0  0  0
   -1.4289   -1.6500    0.0000 C   0  0  2  0  0  0  0  0  0  0  0  0
   -0.7145   -1.2375    0.0000 C   0  0  2  0  0  0  0  0  0  0  0  0
    0.0000   -1.6500    0.0000 C   0  0  0  0  0  0  0  0  0  0  0  0
    0.0000   -2.4750    0.0000 C   0  0  2  0  0  0  0  0  0  0  0  0
   -0.7145   -2.8875    0.0000 C   0  0  1  0  0  0  0  0  0  0  0  0
   -1.4289   -2.4750    0.0000 C   0  0  1  0  0  0  0  0  0  0  0  0
   -2.1434   -2.8875    0.0000 O   0  0  0  0  0  0  0  0  0  0  0  0
   -0.7145   -3.7125    0.0000 O   0  0  0  0  0  0  0  0  0  0  0  0
   -1.4289   -4.1250    0.0000 C   0  0  2  0  0  0  0  0  0  0  0  0
   -1.4289   -4.9500    0.0000 C   0  0  1  0  0  0  0  0  0  0  0  0
   -2.1434   -5.3625    0.0000 C   0  0  2  0  0  0  0  0  0  0  0  0
   -2.8579   -4.9500    0.0000 C   0  0  1  0  0  0  0  0  0  0  0  0
   -2.8579   -4.1250    0.0000 C   0  0  2  0  0  0  0  0  0  0  0  0
   -2.1434   -3.7125    0.0000 O   0  0  0  0  0  0  0  0  0  0  0  0
   -3.5724   -3.7125    0.0000 C   0  0  0  0  0  0  0  0  0  0  0  0
   -3.5724   -2.8875    0.0000 O   0  0  0  0  0  0  0  0  0  0  0  0
   -3.5724   -5.3625    0.0000 O   0  0  0  0  0  0  0  0  0  0  0  0
   -2.1434   -6.1875    0.0000 N   0  0  0  0  0  0  0  0  0  0  0  0
   -0.7145   -5.3625    0.0000 O   0  0  0  0  0  0  0  0  0  0  0  0
    0.7145   -2.8875    0.0000 N   0  0  0  0  0  0  0  0  0  0  0  0
    1.4289   -2.4750    0.0000 C   0  0  0  0  0  0  0  0  0  0  0  0
    1.4289   -1.6500    0.0000 O   0  0  0  0  0  0  0  0  0  0  0  0
    2.1434   -2.8875    0.0000 C   0  0  2  0  0  0  0  0  0  0  0  0
    2.8579   -2.4750    0.0000 C   0  0  0  0  0  0  0  0  0  0  0  0
    3.5724   -2.8875    0.0000 C   0  0  0  0  0  0  0  0  0  0  0  0
    3.5724   -3.7125    0.0000 N   0  0  0  0  0  0  0  0  0  0  0  0
    2.1434   -3.7125    0.0000 O   0  0  0  0  0  0  0  0  0  0  0  0
   -0.7145   -0.4125    0.0000 N   0  0  0  0  0  0  0  0  0  0  0  0
   -3.5724   -0.4125    0.0000 N   0  0  0  0  0  0  0  0  0  0  0  0
  1  2  1  0  0  0  0
  3  2  1  0  0  0  0
  3  4  1  0  0  0  0
  4  5  1  0  0  0  0
  6  5  1  0  0  0  0
  6  1  1  0  0  0  0
  6  7  1  1  0  0  0
  7  8  1  0  0  0  0
  4  9  1  6  0  0  0
 10  9  1  6  0  0  0
 10 11  1  0  0  0  0
 11 12  1  0  0  0  0
 13 12  1  0  0  0  0
 14 13  1  0  0  0  0
 15 14  1  0  0  0  0
 10 15  1  0  0  0  0
 15 16  1  1  0  0  0
 14 17  1  6  0  0  0
 18 17  1  6  0  0  0
 19 18  1  0  0  0  0
 19 20  1  0  0  0  0
 20 21  1  0  0  0  0
 21 22  1  0  0  0  0
 22 23  1  0  0  0  0
 18 23  1  0  0  0  0
 22 24  1  1  0  0  0
 24 25  1  0  0  0  0
 21 26  1  6  0  0  0
 20 27  1  1  0  0  0
 19 28  1  6  0  0  0
 13 29  1  1  0  0  0
 29 30  1  0  0  0  0
 30 31  2  0  0  0  0
 32 30  1  0  0  0  0
 32 33  1  0  0  0  0
 33 34  1  0  0  0  0
 34 35  1  0  0  0  0
 32 36  1  6  0  0  0
 11 37  1  1  0  0  0
  3 38  1  6  0  0  0
M  END
> <Molar mass [g/mol] [MProp:scalar:double]>
552.626

> <Exact mass [Da] [MProp:scalar:double]>
552.311891641

> <Formula>
C22H44N6O10

> <Composition>
C (47.82%), H (8.03%), N (15.21%), O (28.95%)

> <Lipinski's rule of five [MProp:scalar:boolean]>
false

> <Atom count [MProp:scalar:integer]>
82

> <Heavy atom count [MProp:scalar:integer]>
38

> <Asymmetric atom count [MProp:scalar:integer]>
14

> <Rotatable bond count [MProp:scalar:integer]>
10

> <Ring count [MProp:scalar:integer]>
3

> <Aromatic ring count [MProp:scalar:integer]>
0

> <Hetero ring count [MProp:scalar:integer]>
2

> <FSP3 [MProp:scalar:double]>
0.95

> <Hydrogen bond donor count [MProp:scalar:integer]>
11

> <Hydrogen bond acceptor count [MProp:scalar:integer]>
15

> <Formal charge [MProp:scalar:integer]>
0

> <Topological polar surface area [A^2] [MProp:scalar:double]>
297.27

> <Polarizability [A^3] [MProp:scalar:double]>
54.02

> <Molar refractivity [cm^3/mol] [MProp:scalar:double]>
129.08

> <Van der Waals volume [A^3] [MProp:scalar:double]>
506.29

> <Minimum projection area [A^2] [MProp:scalar:double]>
83.29

> <Maximum projection area [A^2] [MProp:scalar:double]>
123.31

> <Minimum projection radius [A] [MProp:scalar:double]>
6.74

> <Maximum projection radius [A] [MProp:scalar:double]>
9.16

> <Van der Waals surface area [A^2] [MProp:scalar:double]>
792.85

> <Solvent accessible surface area [A^2] [MProp:scalar:double]>
661.39

> <Strongest acidic pKa [MProp:scalar:double]>
12.38

> <Strongest basic pKa [MProp:scalar:double]>
9.61

> <Isoelectric point [MProp:scalar:double]>
10.96

> <Intrinsic solubility [logS] [MProp:scalar:double]>
-0.07

> <Solubility category>
High

> <logP [MProp:scalar:double]>
-6.85

> <logD_PH0 [MProp:scalar:double]>
-24.77

> <logD_PH1 [MProp:scalar:double]>
-24.01

> <logD_PH2 [MProp:scalar:double]>
-23.08

> <logD_PH3 [MProp:scalar:double]>
-22.33

> <logD_PH4 [MProp:scalar:double]>
-22.03

> <logD_PH5 [MProp:scalar:double]>
-21.76

> <logD_PH6 [MProp:scalar:double]>
-20.33

> <logD_PH7 [MProp:scalar:double]>
-16.76

> <logD_PH8 [MProp:scalar:double]>
-12.23

> <logD_PH9 [MProp:scalar:double]>
-8.63

> <logD_PH10 [MProp:scalar:double]>
-7.16

> <logD_PH11 [MProp:scalar:double]>
-6.9

> <logD_PH12 [MProp:scalar:double]>
-6.96

> <logD_PH13 [MProp:scalar:double]>
-7.54

> <logD_PH14 [MProp:scalar:double]>
-9.05

> <HLB [MProp:scalar:double]>
48.06

> <IUPAC name>
(2S)-4-amino-N-[(1R,2S,3S,4R,5S)-5-amino-2-{[(2S,3R,4S,5S,6R)-4-amino-3,5-dihydroxy-6-(hydroxymethyl)oxan-2-yl]oxy}-4-{[(2R,3R,6S)-3-amino-6-(aminomethyl)oxan-2-yl]oxy}-3-hydroxycyclohexyl]-2-hydroxybutanamide

> <SMILES>
NCC[C@H](O)C(=O)N[C@@H]1C[C@H](N)[C@@H](O[C@H]2O[C@H](CN)CC[C@H]2N)[C@H](O)[C@H]1O[C@H]1O[C@H](CO)[C@@H](O)[C@H](N)[C@H]1O

> <InChI>
InChI=1S/C22H44N6O10/c23-4-3-12(30)20(34)28-11-5-10(26)18(37-21-9(25)2-1-8(6-24)35-21)17(33)19(11)38-22-16(32)14(27)15(31)13(7-29)36-22/h8-19,21-22,29-33H,1-7,23-27H2,(H,28,34)/t8-,9-,10+,11-,12+,13-,14+,15-,16-,17-,18-,19+,21-,22-/m1/s1

> <InChIKey>
MKKYBZZTJQGVCD-XTCKQBCOSA-N

> <Traditional name>
arbekacin

> <Common names>
ABK; arbekacin

> <CAS Registry Numbers(R)>
51025-85-5

$$$$
Dibekacin
  Mrv2222 01232613222D          

 31 33  0  0  1  0            999 V2000
    0.0000   -4.1250    0.0000 C   0  0  0  0  0  0  0  0  0  0  0  0
    0.0000   -4.9500    0.0000 C   0  0  0  0  0  0  0  0  0  0  0  0
    0.7145   -5.3625    0.0000 C   0  0  2  0  0  0  0  0  0  0  0  0
    1.4289   -4.9500    0.0000 C   0  0  2  0  0  0  0  0  0  0  0  0
    1.4289   -4.1250    0.0000 O   0  0  0  0  0  0  0  0  0  0  0  0
    0.7145   -3.7125    0.0000 C   0  0  2  0  0  0  0  0  0  0  0  0
    0.7145   -2.8875    0.0000 C   0  0  0  0  0  0  0  0  0  0  0  0
    1.4289   -2.4750    0.0000 N   0  0  0  0  0  0  0  0  0  0  0  0
    2.1434   -5.3625    0.0000 O   0  0  0  0  0  0  0  0  0  0  0  0
    2.8579   -4.9500    0.0000 C   0  0  2  0  0  0  0  0  0  0  0  0
    3.5724   -5.3625    0.0000 C   0  0  2  0  0  0  0  0  0  0  0  0
    4.2868   -4.9500    0.0000 C   0  0  0  0  0  0  0  0  0  0  0  0
    4.2868   -4.1250    0.0000 C   0  0  2  0  0  0  0  0  0  0  0  0
    3.5724   -3.7125    0.0000 C   0  0  1  0  0  0  0  0  0  0  0  0
    2.8579   -4.1250    0.0000 C   0  0  1  0  0  0  0  0  0  0  0  0
    2.1434   -3.7125    0.0000 O   0  0  0  0  0  0  0  0  0  0  0  0
    3.5724   -2.8875    0.0000 O   0  0  0  0  0  0  0  0  0  0  0  0
    4.2868   -2.4750    0.0000 C   0  0  2  0  0  0  0  0  0  0  0  0
    4.2868   -1.6500    0.0000 C   0  0  1  0  0  0  0  0  0  0  0  0
    5.0013   -1.2375    0.0000 C   0  0  2  0  0  0  0  0  0  0  0  0
    5.7158   -1.6500    0.0000 C   0  0  1  0  0  0  0  0  0  0  0  0
    5.7158   -2.4750    0.0000 C   0  0  2  0  0  0  0  0  0  0  0  0
    5.0013   -2.8875    0.0000 O   0  0  0  0  0  0  0  0  0  0  0  0
    6.4302   -2.8875    0.0000 C   0  0  0  0  0  0  0  0  0  0  0  0
    7.1447   -2.4750    0.0000 O   0  0  0  0  0  0  0  0  0  0  0  0
    6.4302   -1.2375    0.0000 O   0  0  0  0  0  0  0  0  0  0  0  0
    5.0013   -0.4125    0.0000 N   0  0  0  0  0  0  0  0  0  0  0  0
    3.5724   -1.2375    0.0000 O   0  0  0  0  0  0  0  0  0  0  0  0
    5.0013   -3.7125    0.0000 N   0  0  0  0  0  0  0  0  0  0  0  0
    3.5724   -6.1875    0.0000 N   0  0  0  0  0  0  0  0  0  0  0  0
    0.7145   -6.1875    0.0000 N   0  0  0  0  0  0  0  0  0  0  0  0
  1  2  1  0  0  0  0
  3  2  1  0  0  0  0
  3  4  1  0  0  0  0
  4  5  1  0  0  0  0
  6  5  1  0  0  0  0
  6  1  1  0  0  0  0
  6  7  1  1  0  0  0
  7  8  1  0  0  0  0
  4  9  1  6  0  0  0
 10  9  1  1  0  0  0
 10 11  1  0  0  0  0
 11 12  1  0  0  0  0
 13 12  1  0  0  0  0
 14 13  1  0  0  0  0
 15 14  1  0  0  0  0
 10 15  1  0  0  0  0
 15 16  1  6  0  0  0
 14 17  1  1  0  0  0
 18 17  1  6  0  0  0
 19 18  1  0  0  0  0
 19 20  1  0  0  0  0
 20 21  1  0  0  0  0
 21 22  1  0  0  0  0
 22 23  1  0  0  0  0
 18 23  1  0  0  0  0
 22 24  1  1  0  0  0
 24 25  1  0  0  0  0
 21 26  1  6  0  0  0
 20 27  1  1  0  0  0
 19 28  1  6  0  0  0
 13 29  1  6  0  0  0
 11 30  1  6  0  0  0
  3 31  1  6  0  0  0
M  END
> <Molar mass [g/mol] [MProp:scalar:double]>
451.521

> <Exact mass [Da] [MProp:scalar:double]>
451.264213171

> <Formula>
C18H37N5O8

> <Composition>
C (47.88%), H (8.26%), N (15.51%), O (28.35%)

> <Lipinski's rule of five [MProp:scalar:boolean]>
false

> <Atom count [MProp:scalar:integer]>
68

> <Heavy atom count [MProp:scalar:integer]>
31

> <Asymmetric atom count [MProp:scalar:integer]>
13

> <Rotatable bond count [MProp:scalar:integer]>
6

> <Ring count [MProp:scalar:integer]>
3

> <Aromatic ring count [MProp:scalar:integer]>
0

> <Hetero ring count [MProp:scalar:integer]>
2

> <FSP3 [MProp:scalar:double]>
1.0

> <Hydrogen bond donor count [MProp:scalar:integer]>
9

> <Hydrogen bond acceptor count [MProp:scalar:integer]>
13

> <Formal charge [MProp:scalar:integer]>
0

> <Topological polar surface area [A^2] [MProp:scalar:double]>
247.94

> <Polarizability [A^3] [MProp:scalar:double]>
44.75

> <Molar refractivity [cm^3/mol] [MProp:scalar:double]>
105.38

> <Van der Waals volume [A^3] [MProp:scalar:double]>
414.76

> <Minimum projection area [A^2] [MProp:scalar:double]>
65.67

> <Maximum projection area [A^2] [MProp:scalar:double]>
114.47

> <Minimum projection radius [A] [MProp:scalar:double]>
5.45

> <Maximum projection radius [A] [MProp:scalar:double]>
7.95

> <Van der Waals surface area [A^2] [MProp:scalar:double]>
646.96

> <Solvent accessible surface area [A^2] [MProp:scalar:double]>
535.42

> <Strongest acidic pKa [MProp:scalar:double]>
12.54

> <Strongest basic pKa [MProp:scalar:double]>
9.33

> <Isoelectric point [MProp:scalar:double]>
11.01

> <Intrinsic solubility [logS] [MProp:scalar:double]>
-0.18

> <Solubility category>
High

> <logP [MProp:scalar:double]>
-5.33

> <logD_PH0 [MProp:scalar:double]>
-20.5

> <logD_PH1 [MProp:scalar:double]>
-20.5

> <logD_PH2 [MProp:scalar:double]>
-20.49

> <logD_PH3 [MProp:scalar:double]>
-20.48

> <logD_PH4 [MProp:scalar:double]>
-20.33

> <logD_PH5 [MProp:scalar:double]>
-19.59

> <logD_PH6 [MProp:scalar:double]>
-17.49

> <logD_PH7 [MProp:scalar:double]>
-13.61

> <logD_PH8 [MProp:scalar:double]>
-9.47

> <logD_PH9 [MProp:scalar:double]>
-6.54

> <logD_PH10 [MProp:scalar:double]>
-5.51

> <logD_PH11 [MProp:scalar:double]>
-5.36

> <logD_PH12 [MProp:scalar:double]>
-5.45

> <logD_PH13 [MProp:scalar:double]>
-6.13

> <logD_PH14 [MProp:scalar:double]>
-8.11

> <HLB [MProp:scalar:double]>
42.2

> <IUPAC name>
(2S,3R,4S,5S,6R)-4-amino-2-{[(1S,2S,3R,4S,6R)-4,6-diamino-3-{[(2R,3R,6S)-3-amino-6-(aminomethyl)oxan-2-yl]oxy}-2-hydroxycyclohexyl]oxy}-6-(hydroxymethyl)oxane-3,5-diol

> <SMILES>
NC[C@@H]1CC[C@@H](N)[C@@H](O[C@@H]2[C@@H](N)C[C@@H](N)[C@H](O[C@H]3O[C@H](CO)[C@@H](O)[C@H](N)[C@H]3O)[C@H]2O)O1

> <InChI>
InChI=1S/C18H37N5O8/c19-4-6-1-2-7(20)17(28-6)30-15-8(21)3-9(22)16(14(15)27)31-18-13(26)11(23)12(25)10(5-24)29-18/h6-18,24-27H,1-5,19-23H2/t6-,7-,8+,9-,10-,11+,12-,13-,14-,15-,16+,17-,18-/m1/s1

> <InChIKey>
JJCQSGDBDPYCEO-XVZSLQNASA-N

> <Traditional name>
dibekacin

> <Common names>
3',4' dideoxykanamycin B; 3',4' dideoxykanamycin b; 3',4'-dideoxykanamycin B; 3',4'-dideoxykanamycin b; B, 3',4'-dideoxykanamycin; DKB; DKM; b, 3',4'-dideoxykanamycin; debecacin; dibekacin; dibekacin sulphate; dibekacina; dibekacine; dibekacinum; dideoxykanamycin B; dideoxykanamycine; kappati; panamicin; sulfate, dibekacin; sulphate, dibekacin; 地贝卡星

> <CAS Registry Numbers(R)>
34493-98-6

$$$$
Gentamicin
  Mrv2222 01232613222D          

 33 35  0  0  0  0            999 V2000
    0.0000   -2.4750    0.0000 C   0  0  0  0  0  0  0  0  0  0  0  0
    0.7145   -2.8875    0.0000 C   0  0  0  0  0  0  0  0  0  0  0  0
    0.7145   -3.7125    0.0000 C   0  0  0  0  0  0  0  0  0  0  0  0
    0.0000   -4.1250    0.0000 C   0  0  0  0  0  0  0  0  0  0  0  0
    0.0000   -4.9500    0.0000 C   0  0  0  0  0  0  0  0  0  0  0  0
    0.7145   -5.3625    0.0000 C   0  0  0  0  0  0  0  0  0  0  0  0
    1.4289   -4.9500    0.0000 C   0  0  0  0  0  0  0  0  0  0  0  0
    1.4289   -4.1250    0.0000 O   0  0  0  0  0  0  0  0  0  0  0  0
    2.1434   -5.3625    0.0000 O   0  0  0  0  0  0  0  0  0  0  0  0
    2.8579   -4.9500    0.0000 C   0  0  0  0  0  0  0  0  0  0  0  0
    3.5724   -5.3625    0.0000 C   0  0  0  0  0  0  0  0  0  0  0  0
    4.2868   -4.9500    0.0000 C   0  0  0  0  0  0  0  0  0  0  0  0
    4.2868   -4.1250    0.0000 C   0  0  0  0  0  0  0  0  0  0  0  0
    3.5724   -3.7125    0.0000 C   0  0  0  0  0  0  0  0  0  0  0  0
    2.8579   -4.1250    0.0000 C   0  0  0  0  0  0  0  0  0  0  0  0
    2.1434   -3.7125    0.0000 O   0  0  0  0  0  0  0  0  0  0  0  0
    3.5724   -2.8875    0.0000 O   0  0  0  0  0  0  0  0  0  0  0  0
    4.2868   -2.4750    0.0000 C   0  0  0  0  0  0  0  0  0  0  0  0
    4.2868   -1.6500    0.0000 C   0  0  0  0  0  0  0  0  0  0  0  0
    5.0013   -1.2375    0.0000 C   0  0  0  0  0  0  0  0  0  0  0  0
    5.7158   -1.6500    0.0000 C   0  0  0  0  0  0  0  0  0  0  0  0
    5.7158   -2.4750    0.0000 C   0  0  0  0  0  0  0  0  0  0  0  0
    5.0013   -2.8875    0.0000 O   0  0  0  0  0  0  0  0  0  0  0  0
    6.1530   -0.9504    0.0000 C   0  0  0  0  0  0  0  0  0  0  0  0
    6.5403   -1.6212    0.0000 O   0  0  0  0  0  0  0  0  0  0  0  0
    5.0013   -0.4125    0.0000 N   0  0  0  0  0  0  0  0  0  0  0  0
    5.7158    0.0000    0.0000 C   0  0  0  0  0  0  0  0  0  0  0  0
    3.5724   -1.2375    0.0000 O   0  0  0  0  0  0  0  0  0  0  0  0
    5.0013   -3.7125    0.0000 N   0  0  0  0  0  0  0  0  0  0  0  0
    3.5724   -6.1875    0.0000 N   0  0  0  0  0  0  0  0  0  0  0  0
    0.7145   -6.1875    0.0000 N   0  0  0  0  0  0  0  0  0  0  0  0
    1.4289   -2.4750    0.0000 N   0  0  0  0  0  0  0  0  0  0  0  0
    1.4289   -1.6500    0.0000 C   0  0  0  0  0  0  0  0  0  0  0  0
  1  2  1  0  0  0  0
  2  3  1  0  0  0  0
  3  4  1  0  0  0  0
  4  5  1  0  0  0  0
  5  6  1  0  0  0  0
  6  7  1  0  0  0  0
  7  8  1  0  0  0  0
  3  8  1  0  0  0  0
  7  9  1  0  0  0  0
  9 10  1  0  0  0  0
 10 11  1  0  0  0  0
 11 12  1  0  0  0  0
 12 13  1  0  0  0  0
 13 14  1  0  0  0  0
 14 15  1  0  0  0  0
 10 15  1  0  0  0  0
 15 16  1  0  0  0  0
 14 17  1  0  0  0  0
 17 18  1  0  0  0  0
 18 19  1  0  0  0  0
 19 20  1  0  0  0  0
 20 21  1  0  0  0  0
 21 22  1  0  0  0  0
 22 23  1  0  0  0  0
 18 23  1  0  0  0  0
 21 24  1  0  0  0  0
 21 25  1  0  0  0  0
 20 26  1  0  0  0  0
 26 27  1  0  0  0  0
 19 28  1  0  0  0  0
 13 29  1  0  0  0  0
 11 30  1  0  0  0  0
  6 31  1  0  0  0  0
  2 32  1  0  0  0  0
 32 33  1  0  0  0  0
M  END
> <Molar mass [g/mol] [MProp:scalar:double]>
477.603

> <Exact mass [Da] [MProp:scalar:double]>
477.316248745

> <Formula>
C21H43N5O7

> <Composition>
C (52.81%), H (9.08%), N (14.66%), O (23.45%)

> <Lipinski's rule of five [MProp:scalar:boolean]>
false

> <Atom count [MProp:scalar:integer]>
76

> <Heavy atom count [MProp:scalar:integer]>
33

> <Asymmetric atom count [MProp:scalar:integer]>
13

> <Rotatable bond count [MProp:scalar:integer]>
7

> <Ring count [MProp:scalar:integer]>
3

> <Aromatic ring count [MProp:scalar:integer]>
0

> <Hetero ring count [MProp:scalar:integer]>
2

> <FSP3 [MProp:scalar:double]>
1.0

> <Hydrogen bond donor count [MProp:scalar:integer]>
8

> <Hydrogen bond acceptor count [MProp:scalar:integer]>
12

> <Formal charge [MProp:scalar:integer]>
0

> <Topological polar surface area [A^2] [MProp:scalar:double]>
199.73

> <Polarizability [A^3] [MProp:scalar:double]>
49.57

> <Molar refractivity [cm^3/mol] [MProp:scalar:double]>
118.02

> <Van der Waals volume [A^3] [MProp:scalar:double]>
458.54

> <Minimum projection area [A^2] [MProp:scalar:double]>
70.7

> <Maximum projection area [A^2] [MProp:scalar:double]>
120.32

> <Minimum projection radius [A] [MProp:scalar:double]>
5.97

> <Maximum projection radius [A] [MProp:scalar:double]>
8.59

> <Van der Waals surface area [A^2] [MProp:scalar:double]>
751.02

> <Solvent accessible surface area [A^2] [MProp:scalar:double]>
647.55

> <Strongest acidic pKa [MProp:scalar:double]>
12.55

> <Strongest basic pKa [MProp:scalar:double]>
10.03

> <Isoelectric point [MProp:scalar:double]>
11.22

> <Intrinsic solubility [logS] [MProp:scalar:double]>
-0.42

> <Solubility category>
High

> <logP [MProp:scalar:double]>
-3.14

> <logD_PH0 [MProp:scalar:double]>
-18.72

> <logD_PH1 [MProp:scalar:double]>
-18.72

> <logD_PH2 [MProp:scalar:double]>
-18.72

> <logD_PH3 [MProp:scalar:double]>
-18.7

> <logD_PH4 [MProp:scalar:double]>
-18.56

> <logD_PH5 [MProp:scalar:double]>
-17.81

> <logD_PH6 [MProp:scalar:double]>
-15.74

> <logD_PH7 [MProp:scalar:double]>
-12.03

> <logD_PH8 [MProp:scalar:double]>
-7.94

> <logD_PH9 [MProp:scalar:double]>
-4.86

> <logD_PH10 [MProp:scalar:double]>
-3.5

> <logD_PH11 [MProp:scalar:double]>
-3.2

> <logD_PH12 [MProp:scalar:double]>
-3.26

> <logD_PH13 [MProp:scalar:double]>
-3.92

> <logD_PH14 [MProp:scalar:double]>
-5.84

> <HLB [MProp:scalar:double]>
39.75

> <IUPAC name>
2-{[4,6-diamino-3-({3-amino-6-[1-(methylamino)ethyl]oxan-2-yl}oxy)-2-hydroxycyclohexyl]oxy}-5-methyl-4-(methylamino)oxane-3,5-diol

> <SMILES>
CNC(C)C1CCC(N)C(OC2C(N)CC(N)C(OC3OCC(C)(O)C(NC)C3O)C2O)O1

> <InChI>
InChI=1/C21H43N5O7/c1-9(25-3)13-6-5-10(22)19(31-13)32-16-11(23)7-12(24)17(14(16)27)33-20-15(28)18(26-4)21(2,29)8-30-20/h9-20,25-29H,5-8,22-24H2,1-4H3

> <InChIKey>
CEAZRRDELHUEMR-UHFFFAOYNA-N

> <Traditional name>
gentamicin

> <Common names>
G-mycin; G-myticin; alcomicin; cidomycin; garamycin otic solution; garasol; genoptic liquifilm; gentacycol; gentamar; gentamcin sulfate; gentamicin; gentamicina; gentamicine; gentamicinum; gentamycin; gentamycin-creme; gentamycins; gentamycinum; gentavet; gentocin; jenamicin; ocu-mycin; refobacin TM; spectro-genta; uromycine

> <CAS Registry Numbers(R)>
1403-66-3, 1294497-75-8

$$$$
Isepamicin
  Mrv2222 01232613222D          

 39 41  0  0  1  0            999 V2000
   -0.2822   -5.7252    0.0000 C   0  0  0  0  0  0  0  0  0  0  0  0
    0.0000   -4.9500    0.0000 C   0  0  2  0  0  0  0  0  0  0  0  0
    0.0000   -4.1250    0.0000 C   0  0  0  0  0  0  0  0  0  0  0  0
    0.7145   -3.7125    0.0000 O   0  0  0  0  0  0  0  0  0  0  0  0
    1.4289   -4.1250    0.0000 C   0  0  1  0  0  0  0  0  0  0  0  0
    1.4289   -4.9500    0.0000 C   0  0  1  0  0  0  0  0  0  0  0  0
    0.7145   -5.3625    0.0000 C   0  0  1  0  0  0  0  0  0  0  0  0
    0.7145   -6.1875    0.0000 N   0  0  0  0  0  0  0  0  0  0  0  0
    0.0000   -6.6000    0.0000 C   0  0  0  0  0  0  0  0  0  0  0  0
    2.1434   -5.3625    0.0000 O   0  0  0  0  0  0  0  0  0  0  0  0
    2.1434   -3.7125    0.0000 O   0  0  0  0  0  0  0  0  0  0  0  0
    2.1434   -2.8875    0.0000 C   0  0  1  0  0  0  0  0  0  0  0  0
    2.8579   -2.4750    0.0000 C   0  0  1  0  0  0  0  0  0  0  0  0
    2.8579   -1.6500    0.0000 C   0  0  0  0  0  0  0  0  0  0  0  0
    2.1434   -1.2375    0.0000 C   0  0  1  0  0  0  0  0  0  0  0  0
    1.4289   -1.6500    0.0000 C   0  0  2  0  0  0  0  0  0  0  0  0
    1.4289   -2.4750    0.0000 C   0  0  2  0  0  0  0  0  0  0  0  0
    0.7145   -2.8875    0.0000 O   0  0  0  0  0  0  0  0  0  0  0  0
    0.7145   -1.2375    0.0000 O   0  0  0  0  0  0  0  0  0  0  0  0
    0.7145   -0.4125    0.0000 C   0  0  2  0  0  0  0  0  0  0  0  0
    0.0000    0.0000    0.0000 C   0  0  1  0  0  0  0  0  0  0  0  0
    0.0000    0.8250    0.0000 C   0  0  2  0  0  0  0  0  0  0  0  0
    0.7145    1.2375    0.0000 C   0  0  1  0  0  0  0  0  0  0  0  0
    1.4289    0.8250    0.0000 C   0  0  2  0  0  0  0  0  0  0  0  0
    1.4289    0.0000    0.0000 O   0  0  0  0  0  0  0  0  0  0  0  0
    2.1434    1.2375    0.0000 C   0  0  0  0  0  0  0  0  0  0  0  0
    2.1434    2.0625    0.0000 N   0  0  0  0  0  0  0  0  0  0  0  0
    0.7145    2.0625    0.0000 O   0  0  0  0  0  0  0  0  0  0  0  0
   -0.7145    1.2375    0.0000 O   0  0  0  0  0  0  0  0  0  0  0  0
   -0.7145   -0.4125    0.0000 O   0  0  0  0  0  0  0  0  0  0  0  0
    2.1434   -0.4125    0.0000 N   0  0  0  0  0  0  0  0  0  0  0  0
    3.5724   -2.8875    0.0000 N   0  0  0  0  0  0  0  0  0  0  0  0
    4.2868   -2.4750    0.0000 C   0  0  0  0  0  0  0  0  0  0  0  0
    4.2868   -1.6500    0.0000 O   0  0  0  0  0  0  0  0  0  0  0  0
    5.0013   -2.8875    0.0000 C   0  0  2  0  0  0  0  0  0  0  0  0
    5.7158   -2.4750    0.0000 C   0  0  0  0  0  0  0  0  0  0  0  0
    6.4302   -2.8875    0.0000 N   0  0  0  0  0  0  0  0  0  0  0  0
    5.0013   -3.7125    0.0000 O   0  0  0  0  0  0  0  0  0  0  0  0
   -0.8125   -4.8067    0.0000 O   0  0  0  0  0  0  0  0  0  0  0  0
  2  1  1  6  0  0  0
  2  3  1  0  0  0  0
  3  4  1  0  0  0  0
  5  4  1  0  0  0  0
  6  5  1  0  0  0  0
  6  7  1  0  0  0  0
  7  2  1  0  0  0  0
  7  8  1  1  0  0  0
  8  9  1  0  0  0  0
  6 10  1  6  0  0  0
  5 11  1  6  0  0  0
 12 11  1  6  0  0  0
 12 13  1  0  0  0  0
 13 14  1  0  0  0  0
 15 14  1  0  0  0  0
 16 15  1  0  0  0  0
 17 16  1  0  0  0  0
 12 17  1  0  0  0  0
 17 18  1  1  0  0  0
 16 19  1  6  0  0  0
 20 19  1  6  0  0  0
 21 20  1  0  0  0  0
 21 22  1  0  0  0  0
 22 23  1  0  0  0  0
 23 24  1  0  0  0  0
 24 25  1  0  0  0  0
 20 25  1  0  0  0  0
 24 26  1  1  0  0  0
 26 27  1  0  0  0  0
 23 28  1  6  0  0  0
 22 29  1  1  0  0  0
 21 30  1  6  0  0  0
 15 31  1  1  0  0  0
 13 32  1  1  0  0  0
 32 33  1  0  0  0  0
 33 34  2  0  0  0  0
 35 33  1  0  0  0  0
 35 36  1  0  0  0  0
 36 37  1  0  0  0  0
 35 38  1  6  0  0  0
  2 39  1  1  0  0  0
M  END
> <Molar mass [g/mol] [MProp:scalar:double]>
569.609

> <Exact mass [Da] [MProp:scalar:double]>
569.290821845

> <Formula>
C22H43N5O12

> <Composition>
C (46.39%), H (7.61%), N (12.30%), O (33.71%)

> <Lipinski's rule of five [MProp:scalar:boolean]>
false

> <Atom count [MProp:scalar:integer]>
82

> <Heavy atom count [MProp:scalar:integer]>
39

> <Asymmetric atom count [MProp:scalar:integer]>
15

> <Rotatable bond count [MProp:scalar:integer]>
9

> <Ring count [MProp:scalar:integer]>
3

> <Aromatic ring count [MProp:scalar:integer]>
0

> <Hetero ring count [MProp:scalar:integer]>
2

> <FSP3 [MProp:scalar:double]>
0.95

> <Hydrogen bond donor count [MProp:scalar:integer]>
12

> <Hydrogen bond acceptor count [MProp:scalar:integer]>
16

> <Formal charge [MProp:scalar:integer]>
0

> <Topological polar surface area [A^2] [MProp:scalar:double]>
297.72

> <Polarizability [A^3] [MProp:scalar:double]>
53.86

> <Molar refractivity [cm^3/mol] [MProp:scalar:double]>
128.43

> <Van der Waals volume [A^3] [MProp:scalar:double]>
512.3

> <Minimum projection area [A^2] [MProp:scalar:double]>
72.92

> <Maximum projection area [A^2] [MProp:scalar:double]>
128.09

> <Minimum projection radius [A] [MProp:scalar:double]>
6.05

> <Maximum projection radius [A] [MProp:scalar:double]>
9.05

> <Van der Waals surface area [A^2] [MProp:scalar:double]>
806.87

> <Solvent accessible surface area [A^2] [MProp:scalar:double]>
662.66

> <Strongest acidic pKa [MProp:scalar:double]>
11.95

> <Strongest basic pKa [MProp:scalar:double]>
9.24

> <Isoelectric point [MProp:scalar:double]>
10.54

> <Intrinsic solubility [logS] [MProp:scalar:double]>
0.21

> <Solubility category>
High

> <logP [MProp:scalar:double]>
-7.3

> <logD_PH0 [MProp:scalar:double]>
-21.97

> <logD_PH1 [MProp:scalar:double]>
-21.06

> <logD_PH2 [MProp:scalar:double]>
-20.19

> <logD_PH3 [MProp:scalar:double]>
-19.74

> <logD_PH4 [MProp:scalar:double]>
-19.61

> <logD_PH5 [MProp:scalar:double]>
-19.25

> <logD_PH6 [MProp:scalar:double]>
-17.46

> <logD_PH7 [MProp:scalar:double]>
-14.02

> <logD_PH8 [MProp:scalar:double]>
-10.38

> <logD_PH9 [MProp:scalar:double]>
-8.01

> <logD_PH10 [MProp:scalar:double]>
-7.39

> <logD_PH11 [MProp:scalar:double]>
-7.34

> <logD_PH12 [MProp:scalar:double]>
-7.59

> <logD_PH13 [MProp:scalar:double]>
-8.86

> <logD_PH14 [MProp:scalar:double]>
-11.38

> <HLB [MProp:scalar:double]>
45.11

> <IUPAC name>
(2S)-3-amino-N-[(1R,2S,3S,4R,5S)-5-amino-4-{[(2R,3R,4S,5S,6R)-6-(aminomethyl)-3,4,5-trihydroxyoxan-2-yl]oxy}-2-{[(2R,3R,4R,5R)-3,5-dihydroxy-5-methyl-4-(methylamino)oxan-2-yl]oxy}-3-hydroxycyclohexyl]-2-hydroxypropanamide

> <SMILES>
CN[C@@H]1[C@@H](O)[C@@H](O[C@H]2[C@@H](C[C@H](N)[C@@H](O[C@H]3O[C@H](CN)[C@@H](O)[C@H](O)[C@H]3O)[C@@H]2O)NC(=O)[C@@H](O)CN)OC[C@]1(C)O

> <InChI>
InChI=1S/C22H43N5O12/c1-22(35)6-36-20(15(33)18(22)26-2)39-17-8(27-19(34)9(28)4-23)3-7(25)16(14(17)32)38-21-13(31)12(30)11(29)10(5-24)37-21/h7-18,20-21,26,28-33,35H,3-6,23-25H2,1-2H3,(H,27,34)/t7-,8+,9-,10+,11+,12-,13+,14+,15+,16+,17-,18-,20+,21+,22+/m0/s1

> <InChIKey>
UDIIBEDMEYAVNG-ZKFPOVNWSA-N

> <Traditional name>
isepamicin

> <Common names>
N/A

> <CAS Registry Numbers(R)>
58152-03-7

$$$$
Netilmicin
  Mrv2222 01232613222D          

 33 35  0  0  1  0            999 V2000
    1.4289    0.8250    0.0000 C   0  0  0  0  0  0  0  0  0  0  0  0
    1.4289    0.0000    0.0000 C   0  0  0  0  0  0  0  0  0  0  0  0
    2.1434   -0.4125    0.0000 N   0  0  0  0  0  0  0  0  0  0  0  0
    2.1434   -1.2375    0.0000 C   0  0  2  0  0  0  0  0  0  0  0  0
    1.4289   -1.6500    0.0000 C   0  0  0  0  0  0  0  0  0  0  0  0
    1.4289   -2.4750    0.0000 C   0  0  1  0  0  0  0  0  0  0  0  0
    2.1434   -2.8875    0.0000 C   0  0  2  0  0  0  0  0  0  0  0  0
    2.8579   -2.4750    0.0000 C   0  0  1  0  0  0  0  0  0  0  0  0
    2.8579   -1.6500    0.0000 C   0  0  1  0  0  0  0  0  0  0  0  0
    3.5724   -1.2375    0.0000 O   0  0  0  0  0  0  0  0  0  0  0  0
    4.2868   -1.6500    0.0000 C   0  0  2  0  0  0  0  0  0  0  0  0
    5.0013   -1.2375    0.0000 C   0  0  1  0  0  0  0  0  0  0  0  0
    5.7158   -1.6500    0.0000 C   0  0  2  0  0  0  0  0  0  0  0  0
    5.7158   -2.4750    0.0000 C   0  0  1  0  0  0  0  0  0  0  0  0
    5.0013   -2.8875    0.0000 C   0  0  0  0  0  0  0  0  0  0  0  0
    4.2868   -2.4750    0.0000 O   0  0  0  0  0  0  0  0  0  0  0  0
    6.5403   -2.5038    0.0000 C   0  0  0  0  0  0  0  0  0  0  0  0
    6.1530   -3.1746    0.0000 O   0  0  0  0  0  0  0  0  0  0  0  0
    6.4302   -1.2375    0.0000 N   0  0  0  0  0  0  0  0  0  0  0  0
    7.1447   -1.6500    0.0000 C   0  0  0  0  0  0  0  0  0  0  0  0
    5.0013   -0.4125    0.0000 O   0  0  0  0  0  0  0  0  0  0  0  0
    3.5724   -2.8875    0.0000 O   0  0  0  0  0  0  0  0  0  0  0  0
    2.1434   -3.7125    0.0000 O   0  0  0  0  0  0  0  0  0  0  0  0
    1.4289   -4.1250    0.0000 C   0  0  2  0  0  0  0  0  0  0  0  0
    1.4289   -4.9500    0.0000 C   0  0  1  0  0  0  0  0  0  0  0  0
    0.7145   -5.3625    0.0000 C   0  0  0  0  0  0  0  0  0  0  0  0
    0.0000   -4.9500    0.0000 C   0  0  0  0  0  0  0  0  0  0  0  0
    0.0000   -4.1250    0.0000 C   0  0  0  0  0  0  0  0  0  0  0  0
    0.7145   -3.7125    0.0000 O   0  0  0  0  0  0  0  0  0  0  0  0
   -0.7145   -3.7125    0.0000 C   0  0  0  0  0  0  0  0  0  0  0  0
   -1.4289   -4.1250    0.0000 N   0  0  0  0  0  0  0  0  0  0  0  0
    2.1434   -5.3625    0.0000 N   0  0  0  0  0  0  0  0  0  0  0  0
    0.7145   -2.8875    0.0000 N   0  0  0  0  0  0  0  0  0  0  0  0
  1  2  1  0  0  0  0
  2  3  1  0  0  0  0
  4  3  1  1  0  0  0
  4  5  1  0  0  0  0
  6  5  1  0  0  0  0
  7  6  1  0  0  0  0
  7  8  1  0  0  0  0
  8  9  1  0  0  0  0
  9  4  1  0  0  0  0
  9 10  1  6  0  0  0
 11 10  1  6  0  0  0
 12 11  1  0  0  0  0
 12 13  1  0  0  0  0
 13 14  1  0  0  0  0
 14 15  1  0  0  0  0
 15 16  1  0  0  0  0
 11 16  1  0  0  0  0
 14 17  1  6  0  0  0
 14 18  1  1  0  0  0
 13 19  1  1  0  0  0
 19 20  1  0  0  0  0
 12 21  1  6  0  0  0
  8 22  1  1  0  0  0
  7 23  1  6  0  0  0
 24 23  1  6  0  0  0
 24 25  1  0  0  0  0
 25 26  1  0  0  0  0
 26 27  1  0  0  0  0
 27 28  2  0  0  0  0
 28 29  1  0  0  0  0
 24 29  1  0  0  0  0
 28 30  1  0  0  0  0
 30 31  1  0  0  0  0
 25 32  1  6  0  0  0
  6 33  1  1  0  0  0
M  END
> <Molar mass [g/mol] [MProp:scalar:double]>
475.587

> <Exact mass [Da] [MProp:scalar:double]>
475.30059868

> <Formula>
C21H41N5O7

> <Composition>
C (53.04%), H (8.69%), N (14.73%), O (23.55%)

> <Lipinski's rule of five [MProp:scalar:boolean]>
false

> <Atom count [MProp:scalar:integer]>
74

> <Heavy atom count [MProp:scalar:integer]>
33

> <Asymmetric atom count [MProp:scalar:integer]>
11

> <Rotatable bond count [MProp:scalar:integer]>
8

> <Ring count [MProp:scalar:integer]>
3

> <Aromatic ring count [MProp:scalar:integer]>
0

> <Hetero ring count [MProp:scalar:integer]>
2

> <FSP3 [MProp:scalar:double]>
0.9

> <Hydrogen bond donor count [MProp:scalar:integer]>
8

> <Hydrogen bond acceptor count [MProp:scalar:integer]>
12

> <Formal charge [MProp:scalar:integer]>
0

> <Topological polar surface area [A^2] [MProp:scalar:double]>
199.73

> <Polarizability [A^3] [MProp:scalar:double]>
49.32

> <Molar refractivity [cm^3/mol] [MProp:scalar:double]>
119.84

> <Van der Waals volume [A^3] [MProp:scalar:double]>
450.65

> <Minimum projection area [A^2] [MProp:scalar:double]>
73.81

> <Maximum projection area [A^2] [MProp:scalar:double]>
124.72

> <Minimum projection radius [A] [MProp:scalar:double]>
6.53

> <Maximum projection radius [A] [MProp:scalar:double]>
7.55

> <Van der Waals surface area [A^2] [MProp:scalar:double]>
721.94

> <Solvent accessible surface area [A^2] [MProp:scalar:double]>
626.8

> <Strongest acidic pKa [MProp:scalar:double]>
12.55

> <Strongest basic pKa [MProp:scalar:double]>
9.57

> <Isoelectric point [MProp:scalar:double]>
10.96

> <Intrinsic solubility [logS] [MProp:scalar:double]>
-0.59

> <Solubility category>
High

> <logP [MProp:scalar:double]>
-3.53

> <logD_PH0 [MProp:scalar:double]>
-19.11

> <logD_PH1 [MProp:scalar:double]>
-19.11

> <logD_PH2 [MProp:scalar:double]>
-19.11

> <logD_PH3 [MProp:scalar:double]>
-19.07

> <logD_PH4 [MProp:scalar:double]>
-18.82

> <logD_PH5 [MProp:scalar:double]>
-17.84

> <logD_PH6 [MProp:scalar:double]>
-15.4

> <logD_PH7 [MProp:scalar:double]>
-11.35

> <logD_PH8 [MProp:scalar:double]>
-7.33

> <logD_PH9 [MProp:scalar:double]>
-4.59

> <logD_PH10 [MProp:scalar:double]>
-3.68

> <logD_PH11 [MProp:scalar:double]>
-3.56

> <logD_PH12 [MProp:scalar:double]>
-3.65

> <logD_PH13 [MProp:scalar:double]>
-4.31

> <logD_PH14 [MProp:scalar:double]>
-6.23

> <HLB [MProp:scalar:double]>
40.33

> <IUPAC name>
(2R,3R,4R,5R)-2-{[(1S,2S,3R,4S,6R)-4-amino-3-{[(2S,3R)-3-amino-6-(aminomethyl)-3,4-dihydro-2H-pyran-2-yl]oxy}-6-(ethylamino)-2-hydroxycyclohexyl]oxy}-5-methyl-4-(methylamino)oxane-3,5-diol

> <SMILES>
CCN[C@@H]1C[C@H](N)[C@@H](O[C@H]2OC(CN)=CC[C@H]2N)[C@H](O)[C@H]1O[C@H]1OC[C@](C)(O)[C@H](NC)[C@H]1O

> <InChI>
InChI=1S/C21H41N5O7/c1-4-26-13-7-12(24)16(32-19-11(23)6-5-10(8-22)31-19)14(27)17(13)33-20-15(28)18(25-3)21(2,29)9-30-20/h5,11-20,25-29H,4,6-9,22-24H2,1-3H3/t11-,12+,13-,14+,15-,16-,17-,18-,19-,20-,21-/m1/s1

> <InChIKey>
CIDUJQMULVCIBT-MQDUPKMGSA-N

> <Traditional name>
netilmicin

> <Common names>
netilmicin

> <CAS Registry Numbers(R)>
56391-56-1

$$$$
Sisomicin
  Mrv2222 01232613222D          

 31 33  0  0  1  0            999 V2000
    0.1842   -3.0805    0.0000 C   0  0  0  0  0  0  0  0  0  0  0  0
    0.7145   -3.7125    0.0000 C   0  0  2  0  0  0  0  0  0  0  0  0
    1.4289   -4.1250    0.0000 C   0  0  0  0  0  0  0  0  0  0  0  0
    1.4289   -4.9500    0.0000 O   0  0  0  0  0  0  0  0  0  0  0  0
    0.7145   -5.3625    0.0000 C   0  0  1  0  0  0  0  0  0  0  0  0
    0.0000   -4.9500    0.0000 C   0  0  1  0  0  0  0  0  0  0  0  0
    0.0000   -4.1250    0.0000 C   0  0  1  0  0  0  0  0  0  0  0  0
   -0.7145   -3.7125    0.0000 N   0  0  0  0  0  0  0  0  0  0  0  0
   -0.7145   -2.8875    0.0000 C   0  0  0  0  0  0  0  0  0  0  0  0
   -0.7145   -5.3625    0.0000 O   0  0  0  0  0  0  0  0  0  0  0  0
    0.7145   -6.1875    0.0000 O   0  0  0  0  0  0  0  0  0  0  0  0
    1.4289   -6.6000    0.0000 C   0  0  1  0  0  0  0  0  0  0  0  0
    1.4289   -7.4250    0.0000 C   0  0  1  0  0  0  0  0  0  0  0  0
    2.1434   -7.8375    0.0000 C   0  0  0  0  0  0  0  0  0  0  0  0
    2.8579   -7.4250    0.0000 C   0  0  1  0  0  0  0  0  0  0  0  0
    2.8579   -6.6000    0.0000 C   0  0  2  0  0  0  0  0  0  0  0  0
    2.1434   -6.1875    0.0000 C   0  0  2  0  0  0  0  0  0  0  0  0
    2.1434   -5.3625    0.0000 O   0  0  0  0  0  0  0  0  0  0  0  0
    3.5724   -6.1875    0.0000 O   0  0  0  0  0  0  0  0  0  0  0  0
    4.2868   -6.6000    0.0000 C   0  0  2  0  0  0  0  0  0  0  0  0
    5.0013   -6.1875    0.0000 C   0  0  1  0  0  0  0  0  0  0  0  0
    5.7158   -6.6000    0.0000 C   0  0  0  0  0  0  0  0  0  0  0  0
    5.7158   -7.4250    0.0000 C   0  0  0  0  0  0  0  0  0  0  0  0
    5.0013   -7.8375    0.0000 C   0  0  0  0  0  0  0  0  0  0  0  0
    4.2868   -7.4250    0.0000 O   0  0  0  0  0  0  0  0  0  0  0  0
    5.0013   -8.6625    0.0000 C   0  0  0  0  0  0  0  0  0  0  0  0
    5.7158   -9.0750    0.0000 N   0  0  0  0  0  0  0  0  0  0  0  0
    5.0013   -5.3625    0.0000 N   0  0  0  0  0  0  0  0  0  0  0  0
    3.5724   -7.8375    0.0000 N   0  0  0  0  0  0  0  0  0  0  0  0
    0.7145   -7.8375    0.0000 N   0  0  0  0  0  0  0  0  0  0  0  0
    1.2448   -3.0805    0.0000 O   0  0  0  0  0  0  0  0  0  0  0  0
  2  1  1  6  0  0  0
  2  3  1  0  0  0  0
  3  4  1  0  0  0  0
  5  4  1  0  0  0  0
  6  5  1  0  0  0  0
  6  7  1  0  0  0  0
  7  2  1  0  0  0  0
  7  8  1  1  0  0  0
  8  9  1  0  0  0  0
  6 10  1  6  0  0  0
  5 11  1  6  0  0  0
 12 11  1  6  0  0  0
 12 13  1  0  0  0  0
 13 14  1  0  0  0  0
 15 14  1  0  0  0  0
 16 15  1  0  0  0  0
 17 16  1  0  0  0  0
 12 17  1  0  0  0  0
 17 18  1  1  0  0  0
 16 19  1  6  0  0  0
 20 19  1  6  0  0  0
 20 21  1  0  0  0  0
 21 22  1  0  0  0  0
 22 23  1  0  0  0  0
 23 24  2  0  0  0  0
 24 25  1  0  0  0  0
 20 25  1  0  0  0  0
 24 26  1  0  0  0  0
 26 27  1  0  0  0  0
 21 28  1  6  0  0  0
 15 29  1  1  0  0  0
 13 30  1  1  0  0  0
  2 31  1  1  0  0  0
M  END
> <Molar mass [g/mol] [MProp:scalar:double]>
447.533

> <Exact mass [Da] [MProp:scalar:double]>
447.269298551

> <Formula>
C19H37N5O7

> <Composition>
C (50.99%), H (8.33%), N (15.65%), O (25.02%)

> <Lipinski's rule of five [MProp:scalar:boolean]>
false

> <Atom count [MProp:scalar:integer]>
68

> <Heavy atom count [MProp:scalar:integer]>
31

> <Asymmetric atom count [MProp:scalar:integer]>
11

> <Rotatable bond count [MProp:scalar:integer]>
6

> <Ring count [MProp:scalar:integer]>
3

> <Aromatic ring count [MProp:scalar:integer]>
0

> <Hetero ring count [MProp:scalar:integer]>
2

> <FSP3 [MProp:scalar:double]>
0.89

> <Hydrogen bond donor count [MProp:scalar:integer]>
8

> <Hydrogen bond acceptor count [MProp:scalar:integer]>
12

> <Formal charge [MProp:scalar:integer]>
0

> <Topological polar surface area [A^2] [MProp:scalar:double]>
213.72

> <Polarizability [A^3] [MProp:scalar:double]>
45.66

> <Molar refractivity [cm^3/mol] [MProp:scalar:double]>
110.32

> <Van der Waals volume [A^3] [MProp:scalar:double]>
416.17

> <Minimum projection area [A^2] [MProp:scalar:double]>
62.5

> <Maximum projection area [A^2] [MProp:scalar:double]>
117.67

> <Minimum projection radius [A] [MProp:scalar:double]>
5.77

> <Maximum projection radius [A] [MProp:scalar:double]>
7.75

> <Van der Waals surface area [A^2] [MProp:scalar:double]>
652.93

> <Solvent accessible surface area [A^2] [MProp:scalar:double]>
535.73

> <Strongest acidic pKa [MProp:scalar:double]>
12.55

> <Strongest basic pKa [MProp:scalar:double]>
9.45

> <Isoelectric point [MProp:scalar:double]>
11.03

> <Intrinsic solubility [logS] [MProp:scalar:double]>
-0.56

> <Solubility category>
High

> <logP [MProp:scalar:double]>
-4.32

> <logD_PH0 [MProp:scalar:double]>
-19.69

> <logD_PH1 [MProp:scalar:double]>
-19.69

> <logD_PH2 [MProp:scalar:double]>
-19.69

> <logD_PH3 [MProp:scalar:double]>
-19.67

> <logD_PH4 [MProp:scalar:double]>
-19.52

> <logD_PH5 [MProp:scalar:double]>
-18.7

> <logD_PH6 [MProp:scalar:double]>
-16.26

> <logD_PH7 [MProp:scalar:double]>
-12.09

> <logD_PH8 [MProp:scalar:double]>
-7.94

> <logD_PH9 [MProp:scalar:double]>
-5.23

> <logD_PH10 [MProp:scalar:double]>
-4.44

> <logD_PH11 [MProp:scalar:double]>
-4.34

> <logD_PH12 [MProp:scalar:double]>
-4.44

> <logD_PH13 [MProp:scalar:double]>
-5.1

> <logD_PH14 [MProp:scalar:double]>
-7.02

> <HLB [MProp:scalar:double]>
41.09

> <IUPAC name>
(2R,3R,4R,5R)-2-{[(1S,2S,3R,4S,6R)-4,6-diamino-3-{[(2S,3R)-3-amino-6-(aminomethyl)-3,4-dihydro-2H-pyran-2-yl]oxy}-2-hydroxycyclohexyl]oxy}-5-methyl-4-(methylamino)oxane-3,5-diol

> <SMILES>
CN[C@@H]1[C@@H](O)[C@@H](O[C@H]2[C@H](N)C[C@H](N)[C@@H](O[C@H]3OC(CN)=CC[C@H]3N)[C@@H]2O)OC[C@]1(C)O

> <InChI>
InChI=1S/C19H37N5O7/c1-19(27)7-28-18(13(26)16(19)24-2)31-15-11(23)5-10(22)14(12(15)25)30-17-9(21)4-3-8(6-20)29-17/h3,9-18,24-27H,4-7,20-23H2,1-2H3/t9-,10+,11-,12-,13-,14-,15+,16+,17-,18-,19-/m1/s1

> <InChIKey>
URWAJWIAIPFPJE-YFMIWBNJSA-N

> <Traditional name>
sisomicin

> <Common names>
antibiotic 6640; dehydrogentamicin cla; rickamicin; sisomycin; sissomicin

> <CAS Registry Numbers(R)>
32385-11-8

$$$$
Tobramycin
  Mrv2222 01232613222D          

 32 34  0  0  1  0            999 V2000
    1.4289   -1.6500    0.0000 C   0  0  0  0  0  0  0  0  0  0  0  0
    1.4289   -2.4750    0.0000 C   0  0  1  0  0  0  0  0  0  0  0  0
    2.1434   -2.8875    0.0000 C   0  0  2  0  0  0  0  0  0  0  0  0
    2.8579   -2.4750    0.0000 C   0  0  1  0  0  0  0  0  0  0  0  0
    2.8579   -1.6500    0.0000 C   0  0  2  0  0  0  0  0  0  0  0  0
    2.1434   -1.2375    0.0000 C   0  0  2  0  0  0  0  0  0  0  0  0
    2.1434   -0.4125    0.0000 N   0  0  0  0  0  0  0  0  0  0  0  0
    3.5724   -1.2375    0.0000 O   0  0  0  0  0  0  0  0  0  0  0  0
    4.2868   -1.6500    0.0000 C   0  0  2  0  0  0  0  0  0  0  0  0
    5.0013   -1.2375    0.0000 C   0  0  1  0  0  0  0  0  0  0  0  0
    5.7158   -1.6500    0.0000 C   0  0  2  0  0  0  0  0  0  0  0  0
    5.7158   -2.4750    0.0000 C   0  0  1  0  0  0  0  0  0  0  0  0
    5.0013   -2.8875    0.0000 C   0  0  2  0  0  0  0  0  0  0  0  0
    4.2868   -2.4750    0.0000 O   0  0  0  0  0  0  0  0  0  0  0  0
    5.0013   -3.7125    0.0000 C   0  0  0  0  0  0  0  0  0  0  0  0
    5.7158   -4.1250    0.0000 O   0  0  0  0  0  0  0  0  0  0  0  0
    6.4302   -2.8875    0.0000 O   0  0  0  0  0  0  0  0  0  0  0  0
    6.4302   -1.2375    0.0000 N   0  0  0  0  0  0  0  0  0  0  0  0
    5.0013   -0.4125    0.0000 O   0  0  0  0  0  0  0  0  0  0  0  0
    3.5724   -2.8875    0.0000 O   0  0  0  0  0  0  0  0  0  0  0  0
    2.1434   -3.7125    0.0000 O   0  0  0  0  0  0  0  0  0  0  0  0
    1.4289   -4.1250    0.0000 C   0  0  2  0  0  0  0  0  0  0  0  0
    1.4289   -4.9500    0.0000 C   0  0  1  0  0  0  0  0  0  0  0  0
    0.7145   -5.3625    0.0000 C   0  0  0  0  0  0  0  0  0  0  0  0
    0.0000   -4.9500    0.0000 C   0  0  1  0  0  0  0  0  0  0  0  0
    0.0000   -4.1250    0.0000 C   0  0  2  0  0  0  0  0  0  0  0  0
    0.7145   -3.7125    0.0000 O   0  0  0  0  0  0  0  0  0  0  0  0
   -0.7145   -3.7125    0.0000 C   0  0  0  0  0  0  0  0  0  0  0  0
   -1.4289   -4.1250    0.0000 N   0  0  0  0  0  0  0  0  0  0  0  0
   -0.7145   -5.3625    0.0000 O   0  0  0  0  0  0  0  0  0  0  0  0
    2.1434   -5.3625    0.0000 N   0  0  0  0  0  0  0  0  0  0  0  0
    0.7145   -2.8875    0.0000 N   0  0  0  0  0  0  0  0  0  0  0  0
  2  1  1  0  0  0  0
  3  2  1  0  0  0  0
  3  4  1  0  0  0  0
  4  5  1  0  0  0  0
  5  6  1  0  0  0  0
  6  1  1  0  0  0  0
  6  7  1  1  0  0  0
  5  8  1  6  0  0  0
  9  8  1  6  0  0  0
 10  9  1  0  0  0  0
 10 11  1  0  0  0  0
 11 12  1  0  0  0  0
 12 13  1  0  0  0  0
 13 14  1  0  0  0  0
  9 14  1  0  0  0  0
 13 15  1  1  0  0  0
 15 16  1  0  0  0  0
 12 17  1  6  0  0  0
 11 18  1  1  0  0  0
 10 19  1  6  0  0  0
  4 20  1  1  0  0  0
  3 21  1  6  0  0  0
 22 21  1  6  0  0  0
 22 23  1  0  0  0  0
 23 24  1  0  0  0  0
 25 24  1  0  0  0  0
 25 26  1  0  0  0  0
 26 27  1  0  0  0  0
 22 27  1  0  0  0  0
 26 28  1  1  0  0  0
 28 29  1  0  0  0  0
 25 30  1  6  0  0  0
 23 31  1  6  0  0  0
  2 32  1  1  0  0  0
M  END
> <Molar mass [g/mol] [MProp:scalar:double]>
467.52

> <Exact mass [Da] [MProp:scalar:double]>
467.259127791

> <Formula>
C18H37N5O9

> <Composition>
C (46.24%), H (7.98%), N (14.98%), O (30.80%)

> <Lipinski's rule of five [MProp:scalar:boolean]>
false

> <Atom count [MProp:scalar:integer]>
69

> <Heavy atom count [MProp:scalar:integer]>
32

> <Asymmetric atom count [MProp:scalar:integer]>
14

> <Rotatable bond count [MProp:scalar:integer]>
6

> <Ring count [MProp:scalar:integer]>
3

> <Aromatic ring count [MProp:scalar:integer]>
0

> <Hetero ring count [MProp:scalar:integer]>
2

> <FSP3 [MProp:scalar:double]>
1.0

> <Hydrogen bond donor count [MProp:scalar:integer]>
10

> <Hydrogen bond acceptor count [MProp:scalar:integer]>
14

> <Formal charge [MProp:scalar:integer]>
0

> <Topological polar surface area [A^2] [MProp:scalar:double]>
268.17

> <Polarizability [A^3] [MProp:scalar:double]>
45.42

> <Molar refractivity [cm^3/mol] [MProp:scalar:double]>
106.69

> <Van der Waals volume [A^3] [MProp:scalar:double]>
423.5

> <Minimum projection area [A^2] [MProp:scalar:double]>
69.72

> <Maximum projection area [A^2] [MProp:scalar:double]>
103.99

> <Minimum projection radius [A] [MProp:scalar:double]>
5.66

> <Maximum projection radius [A] [MProp:scalar:double]>
6.86

> <Van der Waals surface area [A^2] [MProp:scalar:double]>
655.13

> <Solvent accessible surface area [A^2] [MProp:scalar:double]>
531.19

> <Strongest acidic pKa [MProp:scalar:double]>
12.53

> <Strongest basic pKa [MProp:scalar:double]>
9.42

> <Isoelectric point [MProp:scalar:double]>
10.96

> <Intrinsic solubility [logS] [MProp:scalar:double]>
-0.02

> <Solubility category>
High

> <logP [MProp:scalar:double]>
-6.48

> <logD_PH0 [MProp:scalar:double]>
-21.64

> <logD_PH1 [MProp:scalar:double]>
-21.64

> <logD_PH2 [MProp:scalar:double]>
-21.64

> <logD_PH3 [MProp:scalar:double]>
-21.62

> <logD_PH4 [MProp:scalar:double]>
-21.46

> <logD_PH5 [MProp:scalar:double]>
-20.62

> <logD_PH6 [MProp:scalar:double]>
-18.19

> <logD_PH7 [MProp:scalar:double]>
-14.07

> <logD_PH8 [MProp:scalar:double]>
-9.98

> <logD_PH9 [MProp:scalar:double]>
-7.38

> <logD_PH10 [MProp:scalar:double]>
-6.6

> <logD_PH11 [MProp:scalar:double]>
-6.5

> <logD_PH12 [MProp:scalar:double]>
-6.6

> <logD_PH13 [MProp:scalar:double]>
-7.28

> <logD_PH14 [MProp:scalar:double]>
-9.26

> <HLB [MProp:scalar:double]>
43.61

> <IUPAC name>
(2S,3R,4S,5S,6R)-4-amino-2-{[(1S,2S,3R,4S,6R)-4,6-diamino-3-{[(2R,3R,5S,6R)-3-amino-6-(aminomethyl)-5-hydroxyoxan-2-yl]oxy}-2-hydroxycyclohexyl]oxy}-6-(hydroxymethyl)oxane-3,5-diol

> <SMILES>
NC[C@H]1O[C@H](O[C@@H]2[C@@H](N)C[C@@H](N)[C@H](O[C@H]3O[C@H](CO)[C@@H](O)[C@H](N)[C@H]3O)[C@H]2O)[C@H](N)C[C@@H]1O

> <InChI>
InChI=1S/C18H37N5O9/c19-3-9-8(25)2-7(22)17(29-9)31-15-5(20)1-6(21)16(14(15)28)32-18-13(27)11(23)12(26)10(4-24)30-18/h5-18,24-28H,1-4,19-23H2/t5-,6-,7+,8-,9+,10+,11-,12+,13+,14-,15+,16-,17+,18+/m0/s1

> <InChIKey>
NLVFBUXFDBBNBW-PBSUHMDJSA-N

> <Traditional name>
tobramycin

> <Common names>
1-epitobramycin; 3'-deoxykanamycin B; TBM; Tobi; aktob; brulamycin; deoxykanamycin B; distobram; gernebcin; gotabiotic; nebcin; nebicin; nebramycin; nebramycin 6; nebramycin VI; nebramycin factir 6; nebramycin factor 6; nebramycin factor vi; nebramycin vi; obracin; obramycin; sprc-AB01; sulfate, tobramycin; sybryx; tenebrimycin; tenemycin; tobacin; tobracin; tobracin (TN); tobradex; tobradistin; tobralex; tobramaxin; tobramicin; tobramicina; tobramitsetin; tobramycetin; tobramycin; tobramycin (product); tobramycin (substance); tobramycin preparation; tobramycin product; tobramycin solution for inhalation; tobramycin sulfate; tobramycin sulfate (substance); tobramycin sulfate preparation; tobramycin sulphate; tobramycine; tobramycinum; tobrased; tobrasone; tobrex; tobrex (TN)

> <CAS Registry Numbers(R)>
32986-56-4

$$$$
Chloramphenicol
  Mrv2222 01232613222D          

 20 20  0  0  1  0            999 V2000
    0.1914   -0.9355    0.0000 C    0  0  0  0  0  0  0  0  0  0  0  0
   -0.6336   -0.9355    0.0000 C    0  0  0  0  0  0  0  0  0  0  0  0
   -1.0461   -0.2211    0.0000 C    0  0  0  0  0  0  0  0  0  0  0  0
   -0.6336    0.4934    0.0000 C    0  0  0  0  0  0  0  0  0  0  0  0
    0.1914    0.4934    0.0000 C    0  0  0  0  0  0  0  0  0  0  0  0
    0.6039   -0.2211    0.0000 C    0  0  0  0  0  0  0  0  0  0  0  0
    1.4289   -0.2211    0.0000 C    0  0  2  0  0  0  0  0  0  0  0  0
    1.8414   -0.9355    0.0000 C    0  0  1  0  0  0  0  0  0  0  0  0
    1.4289   -1.6500    0.0000 C    0  0  0  0  0  0  0  0  0  0  0  0
    0.6039   -1.6500    0.0000 O    0  0  0  0  0  0  0  0  0  0  0  0
    2.6664   -0.9355    0.0000 N    0  0  0  0  0  0  0  0  0  0  0  0
    3.0789   -1.6500    0.0000 C    0  0  0  0  0  0  0  0  0  0  0  0
    2.6664   -2.3645    0.0000 O    0  0  0  0  0  0  0  0  0  0  0  0
    3.9039   -1.6500    0.0000 C    0  0  0  0  0  0  0  0  0  0  0  0
    4.3164   -2.3645    0.0000 Cl   0  0  0  0  0  0  0  0  0  0  0  0
    4.3164   -0.9355    0.0000 Cl   0  0  0  0  0  0  0  0  0  0  0  0
    1.8414    0.4934    0.0000 O    0  0  0  0  0  0  0  0  0  0  0  0
   -1.8711   -0.2211    0.0000 N    0  3  0  0  0  0  0  0  0  0  0  0
   -2.2836   -0.9355    0.0000 O    0  0  0  0  0  0  0  0  0  0  0  0
   -2.2836    0.4934    0.0000 O    0  5  0  0  0  0  0  0  0  0  0  0
  1  2  2  0  0  0  0
  2  3  1  0  0  0  0
  3  4  2  0  0  0  0
  4  5  1  0  0  0  0
  5  6  2  0  0  0  0
  1  6  1  0  0  0  0
  7  6  1  0  0  0  0
  7  8  1  0  0  0  0
  8  9  1  0  0  0  0
  9 10  1  0  0  0  0
  8 11  1  6  0  0  0
 11 12  1  0  0  0  0
 12 13  2  0  0  0  0
 12 14  1  0  0  0  0
 14 15  1  0  0  0  0
 14 16  1  0  0  0  0
  7 17  1  1  0  0  0
  3 18  1  0  0  0  0
 18 19  2  0  0  0  0
 18 20  1  0  0  0  0
M  END
> <Molar mass [g/mol] [MProp:scalar:double]>
323.13

> <Exact mass [Da] [MProp:scalar:double]>
322.0123269

> <Formula>
C11H12Cl2N2O5

> <Composition>
C (40.89%), H (3.74%), Cl (21.94%), N (8.67%), O (24.76%)

> <Lipinski's rule of five [MProp:scalar:boolean]>
true

> <Atom count [MProp:scalar:integer]>
32

> <Heavy atom count [MProp:scalar:integer]>
20

> <Asymmetric atom count [MProp:scalar:integer]>
2

> <Rotatable bond count [MProp:scalar:integer]>
6

> <Ring count [MProp:scalar:integer]>
1

> <Aromatic ring count [MProp:scalar:integer]>
1

> <Hetero ring count [MProp:scalar:integer]>
0

> <FSP3 [MProp:scalar:double]>
0.36

> <Hydrogen bond donor count [MProp:scalar:integer]>
3

> <Hydrogen bond acceptor count [MProp:scalar:integer]>
5

> <Formal charge [MProp:scalar:integer]>
0

> <Topological polar surface area [A^2] [MProp:scalar:double]>
112.7

> <Polarizability [A^3] [MProp:scalar:double]>
27.82

> <Molar refractivity [cm^3/mol] [MProp:scalar:double]>
72.2

> <Van der Waals volume [A^3] [MProp:scalar:double]>
249.07

> <Minimum projection area [A^2] [MProp:scalar:double]>
47.89

> <Maximum projection area [A^2] [MProp:scalar:double]>
77.35

> <Minimum projection radius [A] [MProp:scalar:double]>
5.07

> <Maximum projection radius [A] [MProp:scalar:double]>
6.53

> <Van der Waals surface area [A^2] [MProp:scalar:double]>
386.28

> <Solvent accessible surface area [A^2] [MProp:scalar:double]>
460.46

> <Strongest acidic pKa [MProp:scalar:double]>
10.89

> <Strongest basic pKa [MProp:scalar:double]>
0.9

> <Isoelectric point [MProp:scalar:double]>
5.89

> <Intrinsic solubility [logS] [MProp:scalar:double]>
-3.21

> <Solubility category>
High

> <logP [MProp:scalar:double]>
0.88

> <logD_PH0 [MProp:scalar:double]>
-0.07

> <logD_PH1 [MProp:scalar:double]>
0.63

> <logD_PH2 [MProp:scalar:double]>
0.85

> <logD_PH3 [MProp:scalar:double]>
0.88

> <logD_PH4 [MProp:scalar:double]>
0.88

> <logD_PH5 [MProp:scalar:double]>
0.88

> <logD_PH6 [MProp:scalar:double]>
0.88

> <logD_PH7 [MProp:scalar:double]>
0.88

> <logD_PH8 [MProp:scalar:double]>
0.88

> <logD_PH9 [MProp:scalar:double]>
0.87

> <logD_PH10 [MProp:scalar:double]>
0.83

> <logD_PH11 [MProp:scalar:double]>
0.58

> <logD_PH12 [MProp:scalar:double]>
0.12

> <logD_PH13 [MProp:scalar:double]>
-0.15

> <logD_PH14 [MProp:scalar:double]>
-0.67

> <HLB [MProp:scalar:double]>
18.32

> <IUPAC name>
2,2-dichloro-N-[(1R,2R)-1,3-dihydroxy-1-(4-nitrophenyl)propan-2-yl]acetamide

> <SMILES>
OC[C@@H](NC(=O)C(Cl)Cl)[C@H](O)C1=CC=C(C=C1)[N+]([O-])=O

> <InChI>
InChI=1S/C11H12Cl2N2O5/c12-10(13)11(18)14-8(5-16)9(17)6-1-3-7(4-2-6)15(19)20/h1-4,8-10,16-17H,5H2,(H,14,18)/t8-,9-/m1/s1

> <InChIKey>
WIIZWVCIJKGZOK-RKDXNWHRSA-N

> <Traditional name>
chloramphenicol

> <Common names>
chloramex; chloramphenicol; chloramphenicolum; chlorocid; chlorocol; cloramfenicol; fenicol; globenicol; halomycetin; laevomycetinum; levomicetina; levomycetin; oleomycetin; sificetina; 氯霉素

> <CAS Registry Numbers(R)>
56-75-7, 125440-98-4, 2787-09-9

$$$$
Loracarbef
  Mrv2222 01232613222D          

 24 26  0  0  1  0            999 V2000
    2.9684    1.2375    0.0000 C    0  0  0  0  0  0  0  0  0  0  0  0
    3.6829    0.8250    0.0000 C    0  0  0  0  0  0  0  0  0  0  0  0
    3.6829    0.0000    0.0000 C    0  0  0  0  0  0  0  0  0  0  0  0
    2.9684   -0.4125    0.0000 C    0  0  0  0  0  0  0  0  0  0  0  0
    2.2539    0.0000    0.0000 N    0  0  0  0  0  0  0  0  0  0  0  0
    2.2539    0.8250    0.0000 C    0  0  1  0  0  0  0  0  0  0  0  0
    1.4289    0.8250    0.0000 C    0  0  1  0  0  0  0  0  0  0  0  0
    1.4289    0.0000    0.0000 C    0  0  0  0  0  0  0  0  0  0  0  0
    0.8456   -0.5834    0.0000 O    0  0  0  0  0  0  0  0  0  0  0  0
    0.8456    1.4084    0.0000 N    0  0  0  0  0  0  0  0  0  0  0  0
    0.0487    1.1948    0.0000 C    0  0  0  0  0  0  0  0  0  0  0  0
   -0.1648    0.3979    0.0000 O    0  0  0  0  0  0  0  0  0  0  0  0
   -0.5347    1.7782    0.0000 C    0  0  1  0  0  0  0  0  0  0  0  0
   -1.3316    1.5647    0.0000 C    0  0  0  0  0  0  0  0  0  0  0  0
   -1.5451    0.7678    0.0000 C    0  0  0  0  0  0  0  0  0  0  0  0
   -2.3420    0.5543    0.0000 C    0  0  0  0  0  0  0  0  0  0  0  0
   -2.9253    1.1376    0.0000 C    0  0  0  0  0  0  0  0  0  0  0  0
   -2.7118    1.9345    0.0000 C    0  0  0  0  0  0  0  0  0  0  0  0
   -1.9149    2.1480    0.0000 C    0  0  0  0  0  0  0  0  0  0  0  0
   -0.3211    2.5751    0.0000 N    0  0  0  0  0  0  0  0  0  0  0  0
    2.9684   -1.2375    0.0000 C    0  0  0  0  0  0  0  0  0  0  0  0
    3.6829   -1.6500    0.0000 O    0  0  0  0  0  0  0  0  0  0  0  0
    2.2539   -1.6500    0.0000 O    0  0  0  0  0  0  0  0  0  0  0  0
    4.3974   -0.4125    0.0000 Cl   0  0  0  0  0  0  0  0  0  0  0  0
  1  2  1  0  0  0  0
  2  3  1  0  0  0  0
  3  4  2  0  0  0  0
  4  5  1  0  0  0  0
  6  5  1  1  0  0  0
  6  1  1  0  0  0  0
  6  7  1  0  0  0  0
  7  8  1  0  0  0  0
  5  8  1  0  0  0  0
  8  9  2  0  0  0  0
  7 10  1  1  0  0  0
 10 11  1  0  0  0  0
 11 12  2  0  0  0  0
 13 11  1  0  0  0  0
 13 14  1  0  0  0  0
 14 15  2  0  0  0  0
 15 16  1  0  0  0  0
 16 17  2  0  0  0  0
 17 18  1  0  0  0  0
 18 19  2  0  0  0  0
 14 19  1  0  0  0  0
 13 20  1  1  0  0  0
  4 21  1  0  0  0  0
 21 22  2  0  0  0  0
 21 23  1  0  0  0  0
  3 24  1  0  0  0  0
M  END
> <Molar mass [g/mol] [MProp:scalar:double]>
349.77

> <Exact mass [Da] [MProp:scalar:double]>
349.0829337

> <Formula>
C16H16ClN3O4

> <Composition>
C (54.94%), H (4.61%), Cl (10.14%), N (12.01%), O (18.30%)

> <Lipinski's rule of five [MProp:scalar:boolean]>
true

> <Atom count [MProp:scalar:integer]>
40

> <Heavy atom count [MProp:scalar:integer]>
24

> <Asymmetric atom count [MProp:scalar:integer]>
3

> <Rotatable bond count [MProp:scalar:integer]>
4

> <Ring count [MProp:scalar:integer]>
3

> <Aromatic ring count [MProp:scalar:integer]>
1

> <Hetero ring count [MProp:scalar:integer]>
2

> <FSP3 [MProp:scalar:double]>
0.31

> <Hydrogen bond donor count [MProp:scalar:integer]>
3

> <Hydrogen bond acceptor count [MProp:scalar:integer]>
5

> <Formal charge [MProp:scalar:integer]>
0

> <Topological polar surface area [A^2] [MProp:scalar:double]>
112.73

> <Polarizability [A^3] [MProp:scalar:double]>
33.45

> <Molar refractivity [cm^3/mol] [MProp:scalar:double]>
86.64

> <Van der Waals volume [A^3] [MProp:scalar:double]>
286.02

> <Minimum projection area [A^2] [MProp:scalar:double]>
43.72

> <Maximum projection area [A^2] [MProp:scalar:double]>
91.6

> <Minimum projection radius [A] [MProp:scalar:double]>
4.83

> <Maximum projection radius [A] [MProp:scalar:double]>
7.9

> <Van der Waals surface area [A^2] [MProp:scalar:double]>
425.63

> <Solvent accessible surface area [A^2] [MProp:scalar:double]>
447.93

> <Strongest acidic pKa [MProp:scalar:double]>
3.0

> <Strongest basic pKa [MProp:scalar:double]>
7.23

> <Isoelectric point [MProp:scalar:double]>
5.15

> <Intrinsic solubility [logS] [MProp:scalar:double]>
-4.05

> <Solubility category>
Moderate

> <logP [MProp:scalar:double]>
-2.4

> <logD_PH0 [MProp:scalar:double]>
-6.87

> <logD_PH1 [MProp:scalar:double]>
-5.01

> <logD_PH2 [MProp:scalar:double]>
-3.52

> <logD_PH3 [MProp:scalar:double]>
-2.68

> <logD_PH4 [MProp:scalar:double]>
-2.43

> <logD_PH5 [MProp:scalar:double]>
-2.4

> <logD_PH6 [MProp:scalar:double]>
-2.42

> <logD_PH7 [MProp:scalar:double]>
-2.58

> <logD_PH8 [MProp:scalar:double]>
-3.11

> <logD_PH9 [MProp:scalar:double]>
-3.55

> <logD_PH10 [MProp:scalar:double]>
-3.66

> <logD_PH11 [MProp:scalar:double]>
-3.71

> <logD_PH12 [MProp:scalar:double]>
-3.98

> <logD_PH13 [MProp:scalar:double]>
-4.44

> <logD_PH14 [MProp:scalar:double]>
-4.74

> <HLB [MProp:scalar:double]>
24.73

> <IUPAC name>
(6R,7S)-7-[(2R)-2-amino-2-phenylacetamido]-3-chloro-8-oxo-1-azabicyclo[4.2.0]oct-2-ene-2-carboxylic acid

> <SMILES>
N[C@@H](C(=O)N[C@H]1[C@H]2CCC(Cl)=C(N2C1=O)C(O)=O)C1=CC=CC=C1

> <InChI>
InChI=1S/C16H16ClN3O4/c17-9-6-7-10-12(15(22)20(10)13(9)16(23)24)19-14(21)11(18)8-4-2-1-3-5-8/h1-5,10-12H,6-7,18H2,(H,19,21)(H,23,24)/t10-,11+,12-/m0/s1

> <InChIKey>
JAPHQRWPEGVNBT-UTUOFQBUSA-N

> <Traditional name>
loracarbef

> <Common names>
loracabef; loracarbef; loracarbefum; 氯碳头孢

> <CAS Registry Numbers(R)>
76470-66-1

$$$$
Ertapenem
  Mrv2222 01232613222D          

 33 36  0  0  1  0            999 V2000
    1.0396   -1.0396    0.0000 C   0  0  0  0  0  0  0  0  0  0  0  0
    0.7846   -0.2549    0.0000 C   0  0  2  0  0  0  0  0  0  0  0  0
    0.0000    0.0000    0.0000 C   0  0  2  0  0  0  0  0  0  0  0  0
   -0.8250    0.0000    0.0000 C   0  0  2  0  0  0  0  0  0  0  0  0
   -0.8250    0.8250    0.0000 C   0  0  0  0  0  0  0  0  0  0  0  0
   -1.4084    1.4084    0.0000 O   0  0  0  0  0  0  0  0  0  0  0  0
    0.0000    0.8250    0.0000 N   0  0  0  0  0  0  0  0  0  0  0  0
    0.7846    1.0799    0.0000 C   0  0  0  0  0  0  0  0  0  0  0  0
    1.2695    0.4125    0.0000 C   0  0  0  0  0  0  0  0  0  0  0  0
    2.0945    0.4125    0.0000 S   0  0  0  0  0  0  0  0  0  0  0  0
    2.5070   -0.3020    0.0000 C   0  0  1  0  0  0  0  0  0  0  0  0
    3.3275   -0.3882    0.0000 C   0  0  0  0  0  0  0  0  0  0  0  0
    3.4991   -1.1952    0.0000 C   0  0  2  0  0  0  0  0  0  0  0  0
    2.7846   -1.6077    0.0000 N   0  0  0  0  0  0  0  0  0  0  0  0
    2.1715   -1.0556    0.0000 C   0  0  0  0  0  0  0  0  0  0  0  0
    4.2527   -1.5307    0.0000 C   0  0  0  0  0  0  0  0  0  0  0  0
    4.9202   -1.0458    0.0000 O   0  0  0  0  0  0  0  0  0  0  0  0
    4.3390   -2.3512    0.0000 N   0  0  0  0  0  0  0  0  0  0  0  0
    5.0926   -2.6868    0.0000 C   0  0  0  0  0  0  0  0  0  0  0  0
    5.7601   -2.2019    0.0000 C   0  0  0  0  0  0  0  0  0  0  0  0
    6.5138   -2.5374    0.0000 C   0  0  0  0  0  0  0  0  0  0  0  0
    6.6000   -3.3579    0.0000 C   0  0  0  0  0  0  0  0  0  0  0  0
    5.9325   -3.8428    0.0000 C   0  0  0  0  0  0  0  0  0  0  0  0
    5.1789   -3.5073    0.0000 C   0  0  0  0  0  0  0  0  0  0  0  0
    6.0188   -4.6633    0.0000 C   0  0  0  0  0  0  0  0  0  0  0  0
    6.7725   -4.9989    0.0000 O   0  0  0  0  0  0  0  0  0  0  0  0
    5.3513   -5.1482    0.0000 O   0  0  0  0  0  0  0  0  0  0  0  0
    1.0396    1.8646    0.0000 C   0  0  0  0  0  0  0  0  0  0  0  0
    0.4875    2.4777    0.0000 O   0  0  0  0  0  0  0  0  0  0  0  0
    1.8465    2.0361    0.0000 O   0  0  0  0  0  0  0  0  0  0  0  0
   -1.4084   -0.5834    0.0000 C   0  0  1  0  0  0  0  0  0  0  0  0
   -1.1948   -1.3803    0.0000 C   0  0  0  0  0  0  0  0  0  0  0  0
   -2.2053   -0.3698    0.0000 O   0  0  0  0  0  0  0  0  0  0  0  0
  2  1  1  6  0  0  0
  3  2  1  0  0  0  0
  3  4  1  0  0  0  0
  4  5  1  0  0  0  0
  5  6  2  0  0  0  0
  5  7  1  0  0  0  0
  3  7  1  6  0  0  0
  7  8  1  0  0  0  0
  8  9  2  0  0  0  0
  2  9  1  0  0  0  0
  9 10  1  0  0  0  0
 11 10  1  1  0  0  0
 11 12  1  0  0  0  0
 13 12  1  0  0  0  0
 13 14  1  0  0  0  0
 14 15  1  0  0  0  0
 11 15  1  0  0  0  0
 13 16  1  1  0  0  0
 16 17  2  0  0  0  0
 16 18  1  0  0  0  0
 18 19  1  0  0  0  0
 19 20  2  0  0  0  0
 20 21  1  0  0  0  0
 21 22  2  0  0  0  0
 22 23  1  0  0  0  0
 23 24  2  0  0  0  0
 19 24  1  0  0  0  0
 23 25  1  0  0  0  0
 25 26  2  0  0  0  0
 25 27  1  0  0  0  0
  8 28  1  0  0  0  0
 28 29  2  0  0  0  0
 28 30  1  0  0  0  0
  4 31  1  1  0  0  0
 31 32  1  0  0  0  0
 31 33  1  1  0  0  0
M  END
> <Molar mass [g/mol] [MProp:scalar:double]>
475.52

> <Exact mass [Da] [MProp:scalar:double]>
475.141321331

> <Formula>
C22H25N3O7S

> <Composition>
C (55.57%), H (5.30%), N (8.84%), O (23.55%), S (6.74%)

> <Lipinski's rule of five [MProp:scalar:boolean]>
true

> <Atom count [MProp:scalar:integer]>
58

> <Heavy atom count [MProp:scalar:integer]>
33

> <Asymmetric atom count [MProp:scalar:integer]>
6

> <Rotatable bond count [MProp:scalar:integer]>
7

> <Ring count [MProp:scalar:integer]>
4

> <Aromatic ring count [MProp:scalar:integer]>
1

> <Hetero ring count [MProp:scalar:integer]>
3

> <FSP3 [MProp:scalar:double]>
0.45

> <Hydrogen bond donor count [MProp:scalar:integer]>
5

> <Hydrogen bond acceptor count [MProp:scalar:integer]>
8

> <Formal charge [MProp:scalar:integer]>
0

> <Topological polar surface area [A^2] [MProp:scalar:double]>
156.27

> <Polarizability [A^3] [MProp:scalar:double]>
46.14

> <Molar refractivity [cm^3/mol] [MProp:scalar:double]>
121.8

> <Van der Waals volume [A^3] [MProp:scalar:double]>
400.25

> <Minimum projection area [A^2] [MProp:scalar:double]>
62.49

> <Maximum projection area [A^2] [MProp:scalar:double]>
128.64

> <Minimum projection radius [A] [MProp:scalar:double]>
6.17

> <Maximum projection radius [A] [MProp:scalar:double]>
8.96

> <Van der Waals surface area [A^2] [MProp:scalar:double]>
608.43

> <Solvent accessible surface area [A^2] [MProp:scalar:double]>
609.95

> <Strongest acidic pKa [MProp:scalar:double]>
3.51

> <Strongest basic pKa [MProp:scalar:double]>
7.97

> <Isoelectric point [MProp:scalar:double]>
3.76

> <Intrinsic solubility [logS] [MProp:scalar:double]>
-4.01

> <Solubility category>
Moderate

> <logP [MProp:scalar:double]>
-3.27

> <logD_PH0 [MProp:scalar:double]>
-6.05

> <logD_PH1 [MProp:scalar:double]>
-5.15

> <logD_PH2 [MProp:scalar:double]>
-4.24

> <logD_PH3 [MProp:scalar:double]>
-3.51

> <logD_PH4 [MProp:scalar:double]>
-3.27

> <logD_PH5 [MProp:scalar:double]>
-3.9

> <logD_PH6 [MProp:scalar:double]>
-4.85

> <logD_PH7 [MProp:scalar:double]>
-5.79

> <logD_PH8 [MProp:scalar:double]>
-6.57

> <logD_PH9 [MProp:scalar:double]>
-7.2

> <logD_PH10 [MProp:scalar:double]>
-7.45

> <logD_PH11 [MProp:scalar:double]>
-7.49

> <logD_PH12 [MProp:scalar:double]>
-7.51

> <logD_PH13 [MProp:scalar:double]>
-7.64

> <logD_PH14 [MProp:scalar:double]>
-8.17

> <HLB [MProp:scalar:double]>
27.44

> <IUPAC name>
(4R,5S,6S)-3-{[(3S,5S)-5-[(3-carboxyphenyl)carbamoyl]pyrrolidin-3-yl]sulfanyl}-6-[(1R)-1-hydroxyethyl]-4-methyl-7-oxo-1-azabicyclo[3.2.0]hept-2-ene-2-carboxylic acid

> <SMILES>
C[C@@H](O)[C@@H]1[C@H]2[C@@H](C)C(S[C@@H]3CN[C@@H](C3)C(=O)NC3=CC=CC(=C3)C(O)=O)=C(N2C1=O)C(O)=O

> <InChI>
InChI=1S/C22H25N3O7S/c1-9-16-15(10(2)26)20(28)25(16)17(22(31)32)18(9)33-13-7-14(23-8-13)19(27)24-12-5-3-4-11(6-12)21(29)30/h3-6,9-10,13-16,23,26H,7-8H2,1-2H3,(H,24,27)(H,29,30)(H,31,32)/t9-,10-,13+,14+,15-,16-/m1/s1

> <InChIKey>
JUZNIMUFDBIJCM-ANEDZVCMSA-N

> <Traditional name>
ertapenem

> <Common names>
ertapenem

> <CAS Registry Numbers(R)>
153832-46-3

$$$$
Imipenem
  Mrv2222 01232613222D          

 20 21  0  0  1  0            999 V2000
   -4.0000    4.1373    0.0000 C   0  0  0  0  0  0  0  0  0  0  0  0
   -3.2031    3.9238    0.0000 C   0  0  2  0  0  0  0  0  0  0  0  0
   -2.9896    3.1269    0.0000 C   0  0  2  0  0  0  0  0  0  0  0  0
   -2.2751    2.7144    0.0000 C   0  0  1  0  0  0  0  0  0  0  0  0
   -1.4681    2.5429    0.0000 C   0  0  0  0  0  0  0  0  0  0  0  0
   -1.3819    1.7224    0.0000 C   0  0  0  0  0  0  0  0  0  0  0  0
   -2.1356    1.3869    0.0000 C   0  0  0  0  0  0  0  0  0  0  0  0
   -2.6876    2.0000    0.0000 N   0  0  0  0  0  0  0  0  0  0  0  0
   -3.4021    2.4125    0.0000 C   0  0  0  0  0  0  0  0  0  0  0  0
   -4.1990    2.1989    0.0000 O   0  0  0  0  0  0  0  0  0  0  0  0
   -2.3071    0.5799    0.0000 C   0  0  0  0  0  0  0  0  0  0  0  0
   -3.0917    0.3250    0.0000 O   0  0  0  0  0  0  0  0  0  0  0  0
   -1.6940    0.0279    0.0000 O   0  0  0  0  0  0  0  0  0  0  0  0
   -0.6674    1.3099    0.0000 S   0  0  0  0  0  0  0  0  0  0  0  0
    0.0470    1.7224    0.0000 C   0  0  0  0  0  0  0  0  0  0  0  0
    0.7615    1.3099    0.0000 C   0  0  0  0  0  0  0  0  0  0  0  0
    1.4760    1.7224    0.0000 N   0  0  0  0  0  0  0  0  0  0  0  0
    2.1904    1.3099    0.0000 C   0  0  0  0  0  0  0  0  0  0  0  0
    2.9049    1.7224    0.0000 N   0  0  0  0  0  0  0  0  0  0  0  0
   -2.6198    4.5072    0.0000 O   0  0  0  0  0  0  0  0  0  0  0  0
  2  1  1  0  0  0  0
  3  2  1  6  0  0  0
  3  4  1  0  0  0  0
  4  5  1  0  0  0  0
  5  6  1  0  0  0  0
  6  7  2  0  0  0  0
  7  8  1  0  0  0  0
  4  8  1  1  0  0  0
  8  9  1  0  0  0  0
  3  9  1  0  0  0  0
  9 10  2  0  0  0  0
  7 11  1  0  0  0  0
 11 12  2  0  0  0  0
 11 13  1  0  0  0  0
  6 14  1  0  0  0  0
 14 15  1  0  0  0  0
 15 16  1  0  0  0  0
 17 16  1  4  0  0  0
 17 18  1  0  0  0  0
 18 19  2  0  0  0  0
  2 20  1  1  0  0  0
M  END
> <Molar mass [g/mol] [MProp:scalar:double]>
299.35

> <Exact mass [Da] [MProp:scalar:double]>
299.093977213

> <Formula>
C12H17N3O4S

> <Composition>
C (48.15%), H (5.72%), N (14.04%), O (21.38%), S (10.71%)

> <Lipinski's rule of five [MProp:scalar:boolean]>
true

> <Atom count [MProp:scalar:integer]>
37

> <Heavy atom count [MProp:scalar:integer]>
20

> <Asymmetric atom count [MProp:scalar:integer]>
3

> <Rotatable bond count [MProp:scalar:integer]>
6

> <Ring count [MProp:scalar:integer]>
2

> <Aromatic ring count [MProp:scalar:integer]>
0

> <Hetero ring count [MProp:scalar:integer]>
2

> <FSP3 [MProp:scalar:double]>
0.58

> <Hydrogen bond donor count [MProp:scalar:integer]>
4

> <Hydrogen bond acceptor count [MProp:scalar:integer]>
6

> <Formal charge [MProp:scalar:integer]>
0

> <Topological polar surface area [A^2] [MProp:scalar:double]>
113.72

> <Polarizability [A^3] [MProp:scalar:double]>
28.55

> <Molar refractivity [cm^3/mol] [MProp:scalar:double]>
86.14

> <Van der Waals volume [A^3] [MProp:scalar:double]>
252.41

> <Minimum projection area [A^2] [MProp:scalar:double]>
38.3

> <Maximum projection area [A^2] [MProp:scalar:double]>
85.5

> <Minimum projection radius [A] [MProp:scalar:double]>
4.09

> <Maximum projection radius [A] [MProp:scalar:double]>
8.58

> <Van der Waals surface area [A^2] [MProp:scalar:double]>
389.24

> <Solvent accessible surface area [A^2] [MProp:scalar:double]>
482.09

> <Strongest acidic pKa [MProp:scalar:double]>
3.72

> <Strongest basic pKa [MProp:scalar:double]>
11.8

> <Isoelectric point [MProp:scalar:double]>
7.92

> <Intrinsic solubility [logS] [MProp:scalar:double]>
-2.3

> <Solubility category>
High

> <logP [MProp:scalar:double]>
-3.8

> <logD_PH0 [MProp:scalar:double]>
-6.72

> <logD_PH1 [MProp:scalar:double]>
-5.79

> <logD_PH2 [MProp:scalar:double]>
-4.96

> <logD_PH3 [MProp:scalar:double]>
-4.4

> <logD_PH4 [MProp:scalar:double]>
-3.95

> <logD_PH5 [MProp:scalar:double]>
-3.82

> <logD_PH6 [MProp:scalar:double]>
-3.8

> <logD_PH7 [MProp:scalar:double]>
-3.8

> <logD_PH8 [MProp:scalar:double]>
-3.8

> <logD_PH9 [MProp:scalar:double]>
-3.8

> <logD_PH10 [MProp:scalar:double]>
-3.8

> <logD_PH11 [MProp:scalar:double]>
-3.86

> <logD_PH12 [MProp:scalar:double]>
-4.2

> <logD_PH13 [MProp:scalar:double]>
-4.95

> <logD_PH14 [MProp:scalar:double]>
-5.55

> <HLB [MProp:scalar:double]>
23.54

> <IUPAC name>
(5R,6S)-6-[(1R)-1-hydroxyethyl]-3-[(2-methanimidamidoethyl)sulfanyl]-7-oxo-1-azabicyclo[3.2.0]hept-2-ene-2-carboxylic acid

> <SMILES>
C[C@@H](O)[C@@H]1[C@H]2CC(SCCNC=N)=C(N2C1=O)C(O)=O

> <InChI>
InChI=1S/C12H17N3O4S/c1-6(16)9-7-4-8(20-3-2-14-5-13)10(12(18)19)15(7)11(9)17/h5-7,9,16H,2-4H2,1H3,(H2,13,14)(H,18,19)/t6-,7-,9-/m1/s1

> <InChIKey>
ZSKVGTPCRGIANV-ZXFLCMHBSA-N

> <Traditional name>
imipenemum

> <Common names>
imipenem anhydrous; imipenemum

> <CAS Registry Numbers(R)>
64221-86-9

$$$$
Meropenem
  Mrv2222 01232613222D          

 26 28  0  0  1  0            999 V2000
    1.0396   -1.0396    0.0000 C   0  0  0  0  0  0  0  0  0  0  0  0
    0.7846   -0.2549    0.0000 C   0  0  2  0  0  0  0  0  0  0  0  0
    0.0000    0.0000    0.0000 C   0  0  2  0  0  0  0  0  0  0  0  0
   -0.8250    0.0000    0.0000 C   0  0  2  0  0  0  0  0  0  0  0  0
   -0.8250    0.8250    0.0000 C   0  0  0  0  0  0  0  0  0  0  0  0
   -1.4084    1.4084    0.0000 O   0  0  0  0  0  0  0  0  0  0  0  0
    0.0000    0.8250    0.0000 N   0  0  0  0  0  0  0  0  0  0  0  0
    0.7846    1.0799    0.0000 C   0  0  0  0  0  0  0  0  0  0  0  0
    1.2695    0.4125    0.0000 C   0  0  0  0  0  0  0  0  0  0  0  0
    2.0945    0.4125    0.0000 S   0  0  0  0  0  0  0  0  0  0  0  0
    2.5070   -0.3020    0.0000 C   0  0  1  0  0  0  0  0  0  0  0  0
    3.3275   -0.3882    0.0000 C   0  0  0  0  0  0  0  0  0  0  0  0
    3.4991   -1.1952    0.0000 C   0  0  2  0  0  0  0  0  0  0  0  0
    2.7846   -1.6077    0.0000 N   0  0  0  0  0  0  0  0  0  0  0  0
    2.1715   -1.0556    0.0000 C   0  0  0  0  0  0  0  0  0  0  0  0
    4.2527   -1.5307    0.0000 C   0  0  0  0  0  0  0  0  0  0  0  0
    4.9202   -1.0458    0.0000 O   0  0  0  0  0  0  0  0  0  0  0  0
    4.3390   -2.3512    0.0000 N   0  0  0  0  0  0  0  0  0  0  0  0
    5.0926   -2.6868    0.0000 C   0  0  0  0  0  0  0  0  0  0  0  0
    3.6715   -2.8361    0.0000 C   0  0  0  0  0  0  0  0  0  0  0  0
    1.0396    1.8646    0.0000 C   0  0  0  0  0  0  0  0  0  0  0  0
    0.4875    2.4777    0.0000 O   0  0  0  0  0  0  0  0  0  0  0  0
    1.8465    2.0361    0.0000 O   0  0  0  0  0  0  0  0  0  0  0  0
   -1.4084   -0.5834    0.0000 C   0  0  1  0  0  0  0  0  0  0  0  0
   -1.1948   -1.3803    0.0000 C   0  0  0  0  0  0  0  0  0  0  0  0
   -2.2053   -0.3698    0.0000 O   0  0  0  0  0  0  0  0  0  0  0  0
  2  1  1  6  0  0  0
  3  2  1  0  0  0  0
  3  4  1  0  0  0  0
  4  5  1  0  0  0  0
  5  6  2  0  0  0  0
  5  7  1  0  0  0  0
  3  7  1  6  0  0  0
  7  8  1  0  0  0  0
  8  9  2  0  0  0  0
  2  9  1  0  0  0  0
  9 10  1  0  0  0  0
 11 10  1  1  0  0  0
 11 12  1  0  0  0  0
 13 12  1  0  0  0  0
 13 14  1  0  0  0  0
 14 15  1  0  0  0  0
 11 15  1  0  0  0  0
 13 16  1  1  0  0  0
 16 17  2  0  0  0  0
 16 18  1  0  0  0  0
 18 19  1  0  0  0  0
 18 20  1  0  0  0  0
  8 21  1  0  0  0  0
 21 22  2  0  0  0  0
 21 23  1  0  0  0  0
  4 24  1  1  0  0  0
 24 25  1  0  0  0  0
 24 26  1  1  0  0  0
M  END
> <Molar mass [g/mol] [MProp:scalar:double]>
383.46

> <Exact mass [Da] [MProp:scalar:double]>
383.151492091

> <Formula>
C17H25N3O5S

> <Composition>
C (53.25%), H (6.57%), N (10.96%), O (20.86%), S (8.36%)

> <Lipinski's rule of five [MProp:scalar:boolean]>
true

> <Atom count [MProp:scalar:integer]>
51

> <Heavy atom count [MProp:scalar:integer]>
26

> <Asymmetric atom count [MProp:scalar:integer]>
6

> <Rotatable bond count [MProp:scalar:integer]>
5

> <Ring count [MProp:scalar:integer]>
3

> <Aromatic ring count [MProp:scalar:integer]>
0

> <Hetero ring count [MProp:scalar:integer]>
3

> <FSP3 [MProp:scalar:double]>
0.71

> <Hydrogen bond donor count [MProp:scalar:integer]>
3

> <Hydrogen bond acceptor count [MProp:scalar:integer]>
6

> <Formal charge [MProp:scalar:integer]>
0

> <Topological polar surface area [A^2] [MProp:scalar:double]>
110.18

> <Polarizability [A^3] [MProp:scalar:double]>
37.88

> <Molar refractivity [cm^3/mol] [MProp:scalar:double]>
97.89

> <Van der Waals volume [A^3] [MProp:scalar:double]>
336.67

> <Minimum projection area [A^2] [MProp:scalar:double]>
56.14

> <Maximum projection area [A^2] [MProp:scalar:double]>
104.06

> <Minimum projection radius [A] [MProp:scalar:double]>
5.62

> <Maximum projection radius [A] [MProp:scalar:double]>
7.5

> <Van der Waals surface area [A^2] [MProp:scalar:double]>
527.43

> <Solvent accessible surface area [A^2] [MProp:scalar:double]>
520.57

> <Strongest acidic pKa [MProp:scalar:double]>
3.73

> <Strongest basic pKa [MProp:scalar:double]>
8.39

> <Isoelectric point [MProp:scalar:double]>
6.11

> <Intrinsic solubility [logS] [MProp:scalar:double]>
-2.34

> <Solubility category>
High

> <logP [MProp:scalar:double]>
-4.36

> <logD_PH0 [MProp:scalar:double]>
-10.1

> <logD_PH1 [MProp:scalar:double]>
-8.36

> <logD_PH2 [MProp:scalar:double]>
-6.54

> <logD_PH3 [MProp:scalar:double]>
-5.19

> <logD_PH4 [MProp:scalar:double]>
-4.53

> <logD_PH5 [MProp:scalar:double]>
-4.37

> <logD_PH6 [MProp:scalar:double]>
-4.36

> <logD_PH7 [MProp:scalar:double]>
-4.37

> <logD_PH8 [MProp:scalar:double]>
-4.48

> <logD_PH9 [MProp:scalar:double]>
-4.92

> <logD_PH10 [MProp:scalar:double]>
-5.31

> <logD_PH11 [MProp:scalar:double]>
-5.4

> <logD_PH12 [MProp:scalar:double]>
-5.41

> <logD_PH13 [MProp:scalar:double]>
-5.42

> <logD_PH14 [MProp:scalar:double]>
-5.45

> <HLB [MProp:scalar:double]>
27.42

> <IUPAC name>
(4R,5S,6S)-3-{[(3S,5S)-5-(dimethylcarbamoyl)pyrrolidin-3-yl]sulfanyl}-6-[(1R)-1-hydroxyethyl]-4-methyl-7-oxo-1-azabicyclo[3.2.0]hept-2-ene-2-carboxylic acid

> <SMILES>
C[C@@H](O)[C@@H]1[C@H]2[C@@H](C)C(S[C@@H]3CN[C@@H](C3)C(=O)N(C)C)=C(N2C1=O)C(O)=O

> <InChI>
InChI=1S/C17H25N3O5S/c1-7-12-11(8(2)21)16(23)20(12)13(17(24)25)14(7)26-9-5-10(18-6-9)15(22)19(3)4/h7-12,18,21H,5-6H2,1-4H3,(H,24,25)/t7-,8-,9+,10+,11-,12-/m1/s1

> <InChIKey>
DMJNNHOOLUXYBV-PQTSNVLCSA-N

> <Traditional name>
meropenem

> <Common names>
MEPM; antibiotic SM 7338; meropenem; meropenem (product); meropenem (substance); meropenem anhydrous; meropenem preparation; meropenemum; merrem I.V.

> <CAS Registry Numbers(R)>
96036-03-2

$$$$
Tomopenem
  Mrv2222 01232613222D          

 37 40  0  0  1  0            999 V2000
    0.3171   -6.9808    0.0000 C   0  0  0  0  0  0  0  0  0  0  0  0
   -0.4675   -7.2357    0.0000 C   0  0  2  0  0  0  0  0  0  0  0  0
   -0.7225   -8.0203    0.0000 C   0  0  2  0  0  0  0  0  0  0  0  0
   -0.7225   -8.8453    0.0000 C   0  0  2  0  0  0  0  0  0  0  0  0
   -1.5475   -8.8453    0.0000 C   0  0  0  0  0  0  0  0  0  0  0  0
   -2.1308   -9.4287    0.0000 O   0  0  0  0  0  0  0  0  0  0  0  0
   -1.5475   -8.0203    0.0000 N   0  0  0  0  0  0  0  0  0  0  0  0
   -1.8024   -7.2357    0.0000 C   0  0  0  0  0  0  0  0  0  0  0  0
   -1.1350   -6.7508    0.0000 C   0  0  0  0  0  0  0  0  0  0  0  0
   -1.1350   -5.9258    0.0000 S   0  0  0  0  0  0  0  0  0  0  0  0
   -0.4205   -5.5133    0.0000 C   0  0  1  0  0  0  0  0  0  0  0  0
   -0.3343   -4.6928    0.0000 C   0  0  0  0  0  0  0  0  0  0  0  0
    0.4727   -4.5213    0.0000 C   0  0  2  0  0  0  0  0  0  0  0  0
    0.8852   -5.2357    0.0000 N   0  0  0  0  0  0  0  0  0  0  0  0
    0.3332   -5.8488    0.0000 C   0  0  0  0  0  0  0  0  0  0  0  0
    1.7057   -5.3220    0.0000 C   0  0  0  0  0  0  0  0  0  0  0  0
    0.8083   -3.7676    0.0000 C   0  0  0  0  0  0  0  0  0  0  0  0
    0.3233   -3.1002    0.0000 O   0  0  0  0  0  0  0  0  0  0  0  0
    1.6287   -3.6814    0.0000 N   0  0  0  0  0  0  0  0  0  0  0  0
    2.0412   -2.9669    0.0000 C   0  0  0  0  0  0  0  0  0  0  0  0
    2.8482   -3.1384    0.0000 C   0  0  0  0  0  0  0  0  0  0  0  0
    2.9345   -3.9589    0.0000 C   0  0  1  0  0  0  0  0  0  0  0  0
    2.1808   -4.2945    0.0000 C   0  0  0  0  0  0  0  0  0  0  0  0
    3.6489   -4.3714    0.0000 N   0  0  0  0  0  0  0  0  0  0  0  0
    4.3634   -3.9589    0.0000 C   0  0  0  0  0  0  0  0  0  0  0  0
    4.3634   -3.1339    0.0000 O   0  0  0  0  0  0  0  0  0  0  0  0
    5.0779   -4.3714    0.0000 C   0  0  0  0  0  0  0  0  0  0  0  0
    5.7923   -3.9589    0.0000 N   0  0  0  0  0  0  0  0  0  0  0  0
    6.5068   -4.3714    0.0000 C   0  0  0  0  0  0  0  0  0  0  0  0
    7.2213   -3.9589    0.0000 N   0  0  0  0  0  0  0  0  0  0  0  0
    6.5068   -5.1964    0.0000 N   0  0  0  0  0  0  0  0  0  0  0  0
   -2.5870   -6.9808    0.0000 C   0  0  0  0  0  0  0  0  0  0  0  0
   -3.2001   -7.5328    0.0000 O   0  0  0  0  0  0  0  0  0  0  0  0
   -2.7586   -6.1738    0.0000 O   0  0  0  0  0  0  0  0  0  0  0  0
   -0.1391   -9.4287    0.0000 C   0  0  1  0  0  0  0  0  0  0  0  0
    0.6578   -9.2152    0.0000 C   0  0  0  0  0  0  0  0  0  0  0  0
   -0.3526  -10.2256    0.0000 O   0  0  0  0  0  0  0  0  0  0  0  0
  2  1  1  6  0  0  0
  3  2  1  0  0  0  0
  3  4  1  0  0  0  0
  4  5  1  0  0  0  0
  5  6  2  0  0  0  0
  5  7  1  0  0  0  0
  3  7  1  6  0  0  0
  7  8  1  0  0  0  0
  8  9  2  0  0  0  0
  2  9  1  0  0  0  0
  9 10  1  0  0  0  0
 11 10  1  1  0  0  0
 11 12  1  0  0  0  0
 13 12  1  0  0  0  0
 13 14  1  0  0  0  0
 14 15  1  0  0  0  0
 11 15  1  0  0  0  0
 14 16  1  0  0  0  0
 13 17  1  1  0  0  0
 17 18  2  0  0  0  0
 17 19  1  0  0  0  0
 19 20  1  0  0  0  0
 20 21  1  0  0  0  0
 22 21  1  0  0  0  0
 22 23  1  0  0  0  0
 19 23  1  0  0  0  0
 22 24  1  6  0  0  0
 24 25  1  0  0  0  0
 25 26  2  0  0  0  0
 25 27  1  0  0  0  0
 27 28  1  0  0  0  0
 28 29  1  0  0  0  0
 29 30  2  0  0  0  0
 29 31  1  0  0  0  0
  8 32  1  0  0  0  0
 32 33  2  0  0  0  0
 32 34  1  0  0  0  0
  4 35  1  1  0  0  0
 35 36  1  0  0  0  0
 35 37  1  1  0  0  0
M  END
> <Molar mass [g/mol] [MProp:scalar:double]>
537.64

> <Exact mass [Da] [MProp:scalar:double]>
537.236953049

> <Formula>
C23H35N7O6S

> <Composition>
C (51.38%), H (6.56%), N (18.24%), O (17.85%), S (5.96%)

> <Lipinski's rule of five [MProp:scalar:boolean]>
false

> <Atom count [MProp:scalar:integer]>
72

> <Heavy atom count [MProp:scalar:integer]>
37

> <Asymmetric atom count [MProp:scalar:integer]>
7

> <Rotatable bond count [MProp:scalar:integer]>
8

> <Ring count [MProp:scalar:integer]>
4

> <Aromatic ring count [MProp:scalar:integer]>
0

> <Hetero ring count [MProp:scalar:integer]>
4

> <FSP3 [MProp:scalar:double]>
0.7

> <Hydrogen bond donor count [MProp:scalar:integer]>
6

> <Hydrogen bond acceptor count [MProp:scalar:integer]>
10

> <Formal charge [MProp:scalar:integer]>
0

> <Topological polar surface area [A^2] [MProp:scalar:double]>
192.39

> <Polarizability [A^3] [MProp:scalar:double]>
52.49

> <Molar refractivity [cm^3/mol] [MProp:scalar:double]>
147.22

> <Van der Waals volume [A^3] [MProp:scalar:double]>
470.44

> <Minimum projection area [A^2] [MProp:scalar:double]>
79.01

> <Maximum projection area [A^2] [MProp:scalar:double]>
136.05

> <Minimum projection radius [A] [MProp:scalar:double]>
7.11

> <Maximum projection radius [A] [MProp:scalar:double]>
9.89

> <Van der Waals surface area [A^2] [MProp:scalar:double]>
743.46

> <Solvent accessible surface area [A^2] [MProp:scalar:double]>
729.82

> <Strongest acidic pKa [MProp:scalar:double]>
3.82

> <Strongest basic pKa [MProp:scalar:double]>
11.2

> <Isoelectric point [MProp:scalar:double]>
9.5

> <Intrinsic solubility [logS] [MProp:scalar:double]>
-3.1

> <Solubility category>
High

> <logP [MProp:scalar:double]>
-5.46

> <logD_PH0 [MProp:scalar:double]>
-16.71

> <logD_PH1 [MProp:scalar:double]>
-14.33

> <logD_PH2 [MProp:scalar:double]>
-11.92

> <logD_PH3 [MProp:scalar:double]>
-10.14

> <logD_PH4 [MProp:scalar:double]>
-9.0

> <logD_PH5 [MProp:scalar:double]>
-8.17

> <logD_PH6 [MProp:scalar:double]>
-7.22

> <logD_PH7 [MProp:scalar:double]>
-6.29

> <logD_PH8 [MProp:scalar:double]>
-5.64

> <logD_PH9 [MProp:scalar:double]>
-5.46

> <logD_PH10 [MProp:scalar:double]>
-5.46

> <logD_PH11 [MProp:scalar:double]>
-5.64

> <logD_PH12 [MProp:scalar:double]>
-6.26

> <logD_PH13 [MProp:scalar:double]>
-6.98

> <logD_PH14 [MProp:scalar:double]>
-7.27

> <HLB [MProp:scalar:double]>
37.77

> <IUPAC name>
(4R,5S,6S)-3-{[(3S,5S)-5-[(3S)-3-(2-carbamimidamidoacetamido)pyrrolidine-1-carbonyl]-1-methylpyrrolidin-3-yl]sulfanyl}-6-[(1R)-1-hydroxyethyl]-4-methyl-7-oxo-1-azabicyclo[3.2.0]hept-2-ene-2-carboxylic acid

> <SMILES>
C[C@@H](O)[C@@H]1[C@H]2[C@@H](C)C(S[C@H]3C[C@H](N(C)C3)C(=O)N3CC[C@@H](C3)NC(=O)CNC(N)=N)=C(N2C1=O)C(O)=O

> <InChI>
InChI=1S/C23H35N7O6S/c1-10-17-16(11(2)31)21(34)30(17)18(22(35)36)19(10)37-13-6-14(28(3)9-13)20(33)29-5-4-12(8-29)27-15(32)7-26-23(24)25/h10-14,16-17,31H,4-9H2,1-3H3,(H,27,32)(H,35,36)(H4,24,25,26)/t10-,11-,12+,13+,14+,16-,17-/m1/s1

> <InChIKey>
KEDAXBWZURNCHS-GPODMPQUSA-N

> <Traditional name>
tomopenem

> <Common names>
tomopenem

> <CAS Registry Numbers(R)>
222400-20-6

$$$$
Cefetamet
  Mrv2222 01232613222D          

 26 28  0  0  1  0            999 V2000
    2.7069    0.5635    0.0000 C   0  0  0  0  0  0  0  0  0  0  0  0
    1.9924    0.9760    0.0000 C   0  0  0  0  0  0  0  0  0  0  0  0
    1.2780    0.5635    0.0000 C   0  0  0  0  0  0  0  0  0  0  0  0
    0.5635    0.9760    0.0000 N   0  0  0  0  0  0  0  0  0  0  0  0
    0.5635    1.8010    0.0000 C   0  0  1  0  0  0  0  0  0  0  0  0
   -0.2615    1.8010    0.0000 C   0  0  1  0  0  0  0  0  0  0  0  0
   -0.2615    0.9760    0.0000 C   0  0  0  0  0  0  0  0  0  0  0  0
   -0.8449    0.3926    0.0000 O   0  0  0  0  0  0  0  0  0  0  0  0
   -0.8449    2.3843    0.0000 N   0  0  0  0  0  0  0  0  0  0  0  0
   -1.6418    2.1708    0.0000 C   0  0  0  0  0  0  0  0  0  0  0  0
   -1.8553    1.3739    0.0000 O   0  0  0  0  0  0  0  0  0  0  0  0
   -2.2251    2.7542    0.0000 C   0  0  0  0  0  0  0  0  0  0  0  0
   -2.0116    3.5511    0.0000 N   0  0  0  0  0  0  0  0  0  0  0  0
   -1.2147    3.7646    0.0000 O   0  0  0  0  0  0  0  0  0  0  0  0
   -1.0012    4.5615    0.0000 C   0  0  0  0  0  0  0  0  0  0  0  0
   -3.0220    2.5407    0.0000 C   0  0  0  0  0  0  0  0  0  0  0  0
   -3.3177    1.7705    0.0000 C   0  0  0  0  0  0  0  0  0  0  0  0
   -4.1415    1.8136    0.0000 S   0  0  0  0  0  0  0  0  0  0  0  0
   -4.3551    2.6105    0.0000 C   0  0  0  0  0  0  0  0  0  0  0  0
   -3.6632    3.0598    0.0000 N   0  0  0  0  0  0  0  0  0  0  0  0
   -5.1253    2.9062    0.0000 N   0  0  0  0  0  0  0  0  0  0  0  0
    1.2780    2.2135    0.0000 S   0  0  0  0  0  0  0  0  0  0  0  0
    1.9924    1.8010    0.0000 C   0  0  0  0  0  0  0  0  0  0  0  0
    1.2780   -0.2615    0.0000 C   0  0  0  0  0  0  0  0  0  0  0  0
    0.5635   -0.6740    0.0000 O   0  0  0  0  0  0  0  0  0  0  0  0
    1.9924   -0.6740    0.0000 O   0  0  0  0  0  0  0  0  0  0  0  0
  1  2  1  0  0  0  0
  2  3  2  0  0  0  0
  3  4  1  0  0  0  0
  5  4  1  1  0  0  0
  5  6  1  0  0  0  0
  6  7  1  0  0  0  0
  4  7  1  0  0  0  0
  7  8  2  0  0  0  0
  6  9  1  1  0  0  0
  9 10  1  0  0  0  0
 10 11  2  0  0  0  0
 10 12  1  0  0  0  0
 12 13  2  0  0  0  0
 13 14  1  0  0  0  0
 14 15  1  0  0  0  0
 12 16  1  0  0  0  0
 16 17  2  0  0  0  0
 17 18  1  0  0  0  0
 18 19  1  0  0  0  0
 19 20  2  0  0  0  0
 16 20  1  0  0  0  0
 19 21  1  0  0  0  0
  5 22  1  0  0  0  0
 22 23  1  0  0  0  0
  2 23  1  0  0  0  0
  3 24  1  0  0  0  0
 24 25  2  0  0  0  0
 24 26  1  0  0  0  0
M  END
> <Molar mass [g/mol] [MProp:scalar:double]>
397.42

> <Exact mass [Da] [MProp:scalar:double]>
397.051460951

> <Formula>
C14H15N5O5S2

> <Composition>
C (42.31%), H (3.80%), N (17.62%), O (20.13%), S (16.13%)

> <Lipinski's rule of five [MProp:scalar:boolean]>
true

> <Atom count [MProp:scalar:integer]>
41

> <Heavy atom count [MProp:scalar:integer]>
26

> <Asymmetric atom count [MProp:scalar:integer]>
2

> <Rotatable bond count [MProp:scalar:integer]>
5

> <Ring count [MProp:scalar:integer]>
3

> <Aromatic ring count [MProp:scalar:integer]>
1

> <Hetero ring count [MProp:scalar:integer]>
3

> <FSP3 [MProp:scalar:double]>
0.36

> <Hydrogen bond donor count [MProp:scalar:integer]>
3

> <Hydrogen bond acceptor count [MProp:scalar:integer]>
8

> <Formal charge [MProp:scalar:integer]>
0

> <Topological polar surface area [A^2] [MProp:scalar:double]>
147.21

> <Polarizability [A^3] [MProp:scalar:double]>
35.52

> <Molar refractivity [cm^3/mol] [MProp:scalar:double]>
94.18

> <Van der Waals volume [A^3] [MProp:scalar:double]>
308.23

> <Minimum projection area [A^2] [MProp:scalar:double]>
51.21

> <Maximum projection area [A^2] [MProp:scalar:double]>
101.49

> <Minimum projection radius [A] [MProp:scalar:double]>
5.42

> <Maximum projection radius [A] [MProp:scalar:double]>
7.6

> <Van der Waals surface area [A^2] [MProp:scalar:double]>
454.77

> <Solvent accessible surface area [A^2] [MProp:scalar:double]>
568.67

> <Strongest acidic pKa [MProp:scalar:double]>
2.91

> <Strongest basic pKa [MProp:scalar:double]>
3.69

> <Isoelectric point [MProp:scalar:double]>
3.28

> <Intrinsic solubility [logS] [MProp:scalar:double]>
-4.04

> <Solubility category>
Moderate

> <logP [MProp:scalar:double]>
-0.61

> <logD_PH0 [MProp:scalar:double]>
-3.51

> <logD_PH1 [MProp:scalar:double]>
-2.1

> <logD_PH2 [MProp:scalar:double]>
-1.2

> <logD_PH3 [MProp:scalar:double]>
-0.61

> <logD_PH4 [MProp:scalar:double]>
-0.81

> <logD_PH5 [MProp:scalar:double]>
-1.64

> <logD_PH6 [MProp:scalar:double]>
-2.56

> <logD_PH7 [MProp:scalar:double]>
-3.21

> <logD_PH8 [MProp:scalar:double]>
-3.39

> <logD_PH9 [MProp:scalar:double]>
-3.42

> <logD_PH10 [MProp:scalar:double]>
-3.45

> <logD_PH11 [MProp:scalar:double]>
-3.7

> <logD_PH12 [MProp:scalar:double]>
-4.63

> <logD_PH13 [MProp:scalar:double]>
-5.75

> <logD_PH14 [MProp:scalar:double]>
-6.71

> <HLB [MProp:scalar:double]>
22.78

> <IUPAC name>
(6R,7R)-7-[(2Z)-2-(2-amino-1,3-thiazol-4-yl)-2-(methoxyimino)acetamido]-3-methyl-8-oxo-5-thia-1-azabicyclo[4.2.0]oct-2-ene-2-carboxylic acid

> <SMILES>
CO\N=C(/C(=O)N[C@H]1[C@H]2SCC(C)=C(N2C1=O)C(O)=O)C1=CSC(N)=N1

> <InChI>
InChI=1S/C14H15N5O5S2/c1-5-3-25-12-8(11(21)19(12)9(5)13(22)23)17-10(20)7(18-24-2)6-4-26-14(15)16-6/h4,8,12H,3H2,1-2H3,(H2,15,16)(H,17,20)(H,22,23)/b18-7-/t8-,12-/m1/s1

> <InChIKey>
MQLRYUCJDNBWMV-GHXIOONMSA-N

> <Traditional name>
cefetamet

> <Common names>
cefetamet

> <CAS Registry Numbers(R)>
65052-63-3

$$$$
Ceftibuten
  Mrv2222 01232613222D          

 27 29  0  0  1  0            999 V2000
    3.1194    1.8010    0.0000 C   0  0  0  0  0  0  0  0  0  0  0  0
    3.1194    0.9760    0.0000 C   0  0  0  0  0  0  0  0  0  0  0  0
    2.4049    0.5635    0.0000 C   0  0  0  0  0  0  0  0  0  0  0  0
    1.6905    0.9760    0.0000 N   0  0  0  0  0  0  0  0  0  0  0  0
    1.6905    1.8010    0.0000 C   0  0  2  0  0  0  0  0  0  0  0  0
    2.4049    2.2135    0.0000 S   0  0  0  0  0  0  0  0  0  0  0  0
    0.8655    1.8010    0.0000 C   0  0  1  0  0  0  0  0  0  0  0  0
    0.8655    0.9760    0.0000 C   0  0  0  0  0  0  0  0  0  0  0  0
    0.2821    0.3926    0.0000 O   0  0  0  0  0  0  0  0  0  0  0  0
    0.2821    2.3843    0.0000 N   0  0  0  0  0  0  0  0  0  0  0  0
   -0.5148    2.1708    0.0000 C   0  0  0  0  0  0  0  0  0  0  0  0
   -0.7283    1.3739    0.0000 O   0  0  0  0  0  0  0  0  0  0  0  0
   -1.0982    2.7542    0.0000 C   0  0  0  0  0  0  0  0  0  0  0  0
   -1.8950    2.5407    0.0000 C   0  0  0  0  0  0  0  0  0  0  0  0
   -2.1086    1.7438    0.0000 C   0  0  0  0  0  0  0  0  0  0  0  0
   -2.9055    1.5302    0.0000 C   0  0  0  0  0  0  0  0  0  0  0  0
   -3.1190    0.7334    0.0000 O   0  0  0  0  0  0  0  0  0  0  0  0
   -3.4888    2.1136    0.0000 O   0  0  0  0  0  0  0  0  0  0  0  0
   -0.8846    3.5511    0.0000 C   0  0  0  0  0  0  0  0  0  0  0  0
   -1.4038    4.1922    0.0000 C   0  0  0  0  0  0  0  0  0  0  0  0
   -0.9545    4.8841    0.0000 S   0  0  0  0  0  0  0  0  0  0  0  0
   -0.1576    4.6706    0.0000 C   0  0  0  0  0  0  0  0  0  0  0  0
   -0.1144    3.8467    0.0000 N   0  0  0  0  0  0  0  0  0  0  0  0
    0.4835    5.1898    0.0000 N   0  0  0  0  0  0  0  0  0  0  0  0
    2.4049   -0.2615    0.0000 C   0  0  0  0  0  0  0  0  0  0  0  0
    3.1194   -0.6740    0.0000 O   0  0  0  0  0  0  0  0  0  0  0  0
    1.6905   -0.6740    0.0000 O   0  0  0  0  0  0  0  0  0  0  0  0
  1  2  1  0  0  0  0
  2  3  2  0  0  0  0
  3  4  1  0  0  0  0
  5  4  1  1  0  0  0
  5  6  1  0  0  0  0
  1  6  1  0  0  0  0
  5  7  1  0  0  0  0
  7  8  1  0  0  0  0
  4  8  1  0  0  0  0
  8  9  2  0  0  0  0
  7 10  1  1  0  0  0
 10 11  1  0  0  0  0
 11 12  2  0  0  0  0
 11 13  1  0  0  0  0
 13 14  2  0  0  0  0
 14 15  1  0  0  0  0
 15 16  1  0  0  0  0
 16 17  2  0  0  0  0
 16 18  1  0  0  0  0
 13 19  1  0  0  0  0
 19 20  2  0  0  0  0
 20 21  1  0  0  0  0
 21 22  1  0  0  0  0
 22 23  2  0  0  0  0
 19 23  1  0  0  0  0
 22 24  1  0  0  0  0
  3 25  1  0  0  0  0
 25 26  2  0  0  0  0
 25 27  1  0  0  0  0
M  END
> <Molar mass [g/mol] [MProp:scalar:double]>
410.42

> <Exact mass [Da] [MProp:scalar:double]>
410.035476535

> <Formula>
C15H14N4O6S2

> <Composition>
C (43.90%), H (3.44%), N (13.65%), O (23.39%), S (15.62%)

> <Lipinski's rule of five [MProp:scalar:boolean]>
true

> <Atom count [MProp:scalar:integer]>
41

> <Heavy atom count [MProp:scalar:integer]>
27

> <Asymmetric atom count [MProp:scalar:integer]>
2

> <Rotatable bond count [MProp:scalar:integer]>
6

> <Ring count [MProp:scalar:integer]>
3

> <Aromatic ring count [MProp:scalar:integer]>
1

> <Hetero ring count [MProp:scalar:integer]>
3

> <FSP3 [MProp:scalar:double]>
0.27

> <Hydrogen bond donor count [MProp:scalar:integer]>
4

> <Hydrogen bond acceptor count [MProp:scalar:integer]>
8

> <Formal charge [MProp:scalar:integer]>
0

> <Topological polar surface area [A^2] [MProp:scalar:double]>
162.92

> <Polarizability [A^3] [MProp:scalar:double]>
36.25

> <Molar refractivity [cm^3/mol] [MProp:scalar:double]>
97.02

> <Van der Waals volume [A^3] [MProp:scalar:double]>
313.74

> <Minimum projection area [A^2] [MProp:scalar:double]>
61.37

> <Maximum projection area [A^2] [MProp:scalar:double]>
94.23

> <Minimum projection radius [A] [MProp:scalar:double]>
5.52

> <Maximum projection radius [A] [MProp:scalar:double]>
6.95

> <Van der Waals surface area [A^2] [MProp:scalar:double]>
447.93

> <Solvent accessible surface area [A^2] [MProp:scalar:double]>
529.44

> <Strongest acidic pKa [MProp:scalar:double]>
3.01

> <Strongest basic pKa [MProp:scalar:double]>
4.69

> <Isoelectric point [MProp:scalar:double]>
3.35

> <Intrinsic solubility [logS] [MProp:scalar:double]>
-3.91

> <Solubility category>
Moderate

> <logP [MProp:scalar:double]>
-1.43

> <logD_PH0 [MProp:scalar:double]>
-3.33

> <logD_PH1 [MProp:scalar:double]>
-2.28

> <logD_PH2 [MProp:scalar:double]>
-1.79

> <logD_PH3 [MProp:scalar:double]>
-1.43

> <logD_PH4 [MProp:scalar:double]>
-1.7

> <logD_PH5 [MProp:scalar:double]>
-2.96

> <logD_PH6 [MProp:scalar:double]>
-4.75

> <logD_PH7 [MProp:scalar:double]>
-6.36

> <logD_PH8 [MProp:scalar:double]>
-7.17

> <logD_PH9 [MProp:scalar:double]>
-7.34

> <logD_PH10 [MProp:scalar:double]>
-7.37

> <logD_PH11 [MProp:scalar:double]>
-7.47

> <logD_PH12 [MProp:scalar:double]>
-8.24

> <logD_PH13 [MProp:scalar:double]>
-9.59

> <logD_PH14 [MProp:scalar:double]>
-10.63

> <HLB [MProp:scalar:double]>
23.87

> <IUPAC name>
(6R,7R)-7-[(2Z)-2-(2-amino-1,3-thiazol-4-yl)-4-carboxybut-2-enamido]-8-oxo-5-thia-1-azabicyclo[4.2.0]oct-2-ene-2-carboxylic acid

> <SMILES>
NC1=NC(=CS1)C(=C\CC(O)=O)\C(=O)N[C@H]1[C@H]2SCC=C(N2C1=O)C(O)=O

> <InChI>
InChI=1S/C15H14N4O6S2/c16-15-17-7(5-27-15)6(1-2-9(20)21)11(22)18-10-12(23)19-8(14(24)25)3-4-26-13(10)19/h1,3,5,10,13H,2,4H2,(H2,16,17)(H,18,22)(H,20,21)(H,24,25)/b6-1-/t10-,13-/m1/s1

> <InChIKey>
UNJFKXSSGBWRBZ-BJCIPQKHSA-N

> <Traditional name>
ceftibuten

> <Common names>
ceftibuten; ceftibutene; ceftibuteno; ceftibutenum; cis-ceftibuten

> <CAS Registry Numbers(R)>
97519-39-6

$$$$
Cefaclor
  Mrv2222 01232613222D          

 24 26  0  0  1  0            999 V2000
    3.1194    1.8010    0.0000 C    0  0  0  0  0  0  0  0  0  0  0  0
    3.1194    0.9760    0.0000 C    0  0  0  0  0  0  0  0  0  0  0  0
    2.4049    0.5635    0.0000 C    0  0  0  0  0  0  0  0  0  0  0  0
    1.6905    0.9760    0.0000 N    0  0  0  0  0  0  0  0  0  0  0  0
    1.6905    1.8010    0.0000 C    0  0  2  0  0  0  0  0  0  0  0  0
    2.4049    2.2135    0.0000 S    0  0  0  0  0  0  0  0  0  0  0  0
    0.8655    1.8010    0.0000 C    0  0  1  0  0  0  0  0  0  0  0  0
    0.8655    0.9760    0.0000 C    0  0  0  0  0  0  0  0  0  0  0  0
    0.2821    0.3926    0.0000 O    0  0  0  0  0  0  0  0  0  0  0  0
    0.2821    2.3843    0.0000 N    0  0  0  0  0  0  0  0  0  0  0  0
   -0.5148    2.1708    0.0000 C    0  0  0  0  0  0  0  0  0  0  0  0
   -0.7283    1.3739    0.0000 O    0  0  0  0  0  0  0  0  0  0  0  0
   -1.0982    2.7542    0.0000 C    0  0  1  0  0  0  0  0  0  0  0  0
   -1.8950    2.5407    0.0000 C    0  0  0  0  0  0  0  0  0  0  0  0
   -2.1086    1.7438    0.0000 C    0  0  0  0  0  0  0  0  0  0  0  0
   -2.9055    1.5302    0.0000 C    0  0  0  0  0  0  0  0  0  0  0  0
   -3.4888    2.1136    0.0000 C    0  0  0  0  0  0  0  0  0  0  0  0
   -3.2753    2.9105    0.0000 C    0  0  0  0  0  0  0  0  0  0  0  0
   -2.4784    3.1240    0.0000 C    0  0  0  0  0  0  0  0  0  0  0  0
   -0.8846    3.5511    0.0000 N    0  0  0  0  0  0  0  0  0  0  0  0
    2.4049   -0.2615    0.0000 C    0  0  0  0  0  0  0  0  0  0  0  0
    3.1194   -0.6740    0.0000 O    0  0  0  0  0  0  0  0  0  0  0  0
    1.6905   -0.6740    0.0000 O    0  0  0  0  0  0  0  0  0  0  0  0
    3.8339    0.5635    0.0000 Cl   0  0  0  0  0  0  0  0  0  0  0  0
  1  2  1  0  0  0  0
  2  3  2  0  0  0  0
  3  4  1  0  0  0  0
  5  4  1  1  0  0  0
  5  6  1  0  0  0  0
  1  6  1  0  0  0  0
  5  7  1  0  0  0  0
  7  8  1  0  0  0  0
  4  8  1  0  0  0  0
  8  9  2  0  0  0  0
  7 10  1  1  0  0  0
 10 11  1  0  0  0  0
 11 12  2  0  0  0  0
 13 11  1  0  0  0  0
 13 14  1  0  0  0  0
 14 15  2  0  0  0  0
 15 16  1  0  0  0  0
 16 17  2  0  0  0  0
 17 18  1  0  0  0  0
 18 19  2  0  0  0  0
 14 19  1  0  0  0  0
 13 20  1  1  0  0  0
  3 21  1  0  0  0  0
 21 22  2  0  0  0  0
 21 23  1  0  0  0  0
  2 24  1  0  0  0  0
M  END
> <Molar mass [g/mol] [MProp:scalar:double]>
367.8

> <Exact mass [Da] [MProp:scalar:double]>
367.0393548

> <Formula>
C15H14ClN3O4S

> <Composition>
C (48.98%), H (3.84%), Cl (9.64%), N (11.42%), O (17.40%), S (8.72%)

> <Lipinski's rule of five [MProp:scalar:boolean]>
true

> <Atom count [MProp:scalar:integer]>
38

> <Heavy atom count [MProp:scalar:integer]>
24

> <Asymmetric atom count [MProp:scalar:integer]>
3

> <Rotatable bond count [MProp:scalar:integer]>
4

> <Ring count [MProp:scalar:integer]>
3

> <Aromatic ring count [MProp:scalar:integer]>
1

> <Hetero ring count [MProp:scalar:integer]>
2

> <FSP3 [MProp:scalar:double]>
0.27

> <Hydrogen bond donor count [MProp:scalar:integer]>
3

> <Hydrogen bond acceptor count [MProp:scalar:integer]>
5

> <Formal charge [MProp:scalar:integer]>
0

> <Topological polar surface area [A^2] [MProp:scalar:double]>
112.73

> <Polarizability [A^3] [MProp:scalar:double]>
34.7

> <Molar refractivity [cm^3/mol] [MProp:scalar:double]>
89.56

> <Van der Waals volume [A^3] [MProp:scalar:double]>
287.82

> <Minimum projection area [A^2] [MProp:scalar:double]>
56.32

> <Maximum projection area [A^2] [MProp:scalar:double]>
77.77

> <Minimum projection radius [A] [MProp:scalar:double]>
4.8

> <Maximum projection radius [A] [MProp:scalar:double]>
6.08

> <Van der Waals surface area [A^2] [MProp:scalar:double]>
415.99

> <Solvent accessible surface area [A^2] [MProp:scalar:double]>
477.65

> <Strongest acidic pKa [MProp:scalar:double]>
2.82

> <Strongest basic pKa [MProp:scalar:double]>
7.23

> <Isoelectric point [MProp:scalar:double]>
5.1

> <Intrinsic solubility [logS] [MProp:scalar:double]>
-4.47

> <Solubility category>
Moderate

> <logP [MProp:scalar:double]>
-2.31

> <logD_PH0 [MProp:scalar:double]>
-6.21

> <logD_PH1 [MProp:scalar:double]>
-4.41

> <logD_PH2 [MProp:scalar:double]>
-3.16

> <logD_PH3 [MProp:scalar:double]>
-2.5

> <logD_PH4 [MProp:scalar:double]>
-2.33

> <logD_PH5 [MProp:scalar:double]>
-2.31

> <logD_PH6 [MProp:scalar:double]>
-2.33

> <logD_PH7 [MProp:scalar:double]>
-2.49

> <logD_PH8 [MProp:scalar:double]>
-3.02

> <logD_PH9 [MProp:scalar:double]>
-3.46

> <logD_PH10 [MProp:scalar:double]>
-3.57

> <logD_PH11 [MProp:scalar:double]>
-3.65

> <logD_PH12 [MProp:scalar:double]>
-4.04

> <logD_PH13 [MProp:scalar:double]>
-4.87

> <logD_PH14 [MProp:scalar:double]>
-5.84

> <HLB [MProp:scalar:double]>
26.56

> <IUPAC name>
(6R,7R)-7-[(2R)-2-amino-2-phenylacetamido]-3-chloro-8-oxo-5-thia-1-azabicyclo[4.2.0]oct-2-ene-2-carboxylic acid

> <SMILES>
N[C@@H](C(=O)N[C@H]1[C@H]2SCC(Cl)=C(N2C1=O)C(O)=O)C1=CC=CC=C1

> <InChI>
InChI=1S/C15H14ClN3O4S/c16-8-6-24-14-10(13(21)19(14)11(8)15(22)23)18-12(20)9(17)7-4-2-1-3-5-7/h1-5,9-10,14H,6,17H2,(H,18,20)(H,22,23)/t9-,10-,14-/m1/s1

> <InChIKey>
QYIYFLOTGYLRGG-GPCCPHFNSA-N

> <Traditional name>
cefaclor

> <Common names>
cefaclor; cefaclorum

> <CAS Registry Numbers(R)>
53994-73-3, 143059-69-2

$$$$
Cefadroxil
  Mrv2222 01232613222D          

 25 27  0  0  1  0            999 V2000
    2.7069    0.5635    0.0000 C   0  0  0  0  0  0  0  0  0  0  0  0
    1.9924    0.9760    0.0000 C   0  0  0  0  0  0  0  0  0  0  0  0
    1.2780    0.5635    0.0000 C   0  0  0  0  0  0  0  0  0  0  0  0
    0.5635    0.9760    0.0000 N   0  0  0  0  0  0  0  0  0  0  0  0
    0.5635    1.8010    0.0000 C   0  0  1  0  0  0  0  0  0  0  0  0
   -0.2615    1.8010    0.0000 C   0  0  1  0  0  0  0  0  0  0  0  0
   -0.2615    0.9760    0.0000 C   0  0  0  0  0  0  0  0  0  0  0  0
   -0.8449    0.3926    0.0000 O   0  0  0  0  0  0  0  0  0  0  0  0
   -0.8449    2.3843    0.0000 N   0  0  0  0  0  0  0  0  0  0  0  0
   -0.6314    3.1812    0.0000 C   0  0  0  0  0  0  0  0  0  0  0  0
    0.1655    3.3948    0.0000 O   0  0  0  0  0  0  0  0  0  0  0  0
   -1.2147    3.7646    0.0000 C   0  0  1  0  0  0  0  0  0  0  0  0
   -1.0012    4.5615    0.0000 C   0  0  0  0  0  0  0  0  0  0  0  0
   -1.5846    5.1449    0.0000 C   0  0  0  0  0  0  0  0  0  0  0  0
   -1.3710    5.9417    0.0000 C   0  0  0  0  0  0  0  0  0  0  0  0
   -0.5741    6.1553    0.0000 C   0  0  0  0  0  0  0  0  0  0  0  0
    0.0092    5.5719    0.0000 C   0  0  0  0  0  0  0  0  0  0  0  0
   -0.2043    4.7750    0.0000 C   0  0  0  0  0  0  0  0  0  0  0  0
   -0.3606    6.9522    0.0000 O   0  0  0  0  0  0  0  0  0  0  0  0
   -2.0116    3.5511    0.0000 N   0  0  0  0  0  0  0  0  0  0  0  0
    1.2780    2.2135    0.0000 S   0  0  0  0  0  0  0  0  0  0  0  0
    1.9924    1.8010    0.0000 C   0  0  0  0  0  0  0  0  0  0  0  0
    1.2780   -0.2615    0.0000 C   0  0  0  0  0  0  0  0  0  0  0  0
    0.5635   -0.6740    0.0000 O   0  0  0  0  0  0  0  0  0  0  0  0
    1.9924   -0.6740    0.0000 O   0  0  0  0  0  0  0  0  0  0  0  0
  1  2  1  0  0  0  0
  2  3  2  0  0  0  0
  3  4  1  0  0  0  0
  5  4  1  1  0  0  0
  5  6  1  0  0  0  0
  6  7  1  0  0  0  0
  4  7  1  0  0  0  0
  7  8  2  0  0  0  0
  6  9  1  1  0  0  0
  9 10  1  0  0  0  0
 10 11  2  0  0  0  0
 12 10  1  0  0  0  0
 12 13  1  0  0  0  0
 13 14  2  0  0  0  0
 14 15  1  0  0  0  0
 15 16  2  0  0  0  0
 16 17  1  0  0  0  0
 17 18  2  0  0  0  0
 13 18  1  0  0  0  0
 16 19  1  0  0  0  0
 12 20  1  6  0  0  0
  5 21  1  0  0  0  0
 21 22  1  0  0  0  0
  2 22  1  0  0  0  0
  3 23  1  0  0  0  0
 23 24  2  0  0  0  0
 23 25  1  0  0  0  0
M  END
> <Molar mass [g/mol] [MProp:scalar:double]>
363.39

> <Exact mass [Da] [MProp:scalar:double]>
363.088891833

> <Formula>
C16H17N3O5S

> <Composition>
C (52.88%), H (4.72%), N (11.56%), O (22.01%), S (8.82%)

> <Lipinski's rule of five [MProp:scalar:boolean]>
true

> <Atom count [MProp:scalar:integer]>
42

> <Heavy atom count [MProp:scalar:integer]>
25

> <Asymmetric atom count [MProp:scalar:integer]>
3

> <Rotatable bond count [MProp:scalar:integer]>
4

> <Ring count [MProp:scalar:integer]>
3

> <Aromatic ring count [MProp:scalar:integer]>
1

> <Hetero ring count [MProp:scalar:integer]>
2

> <FSP3 [MProp:scalar:double]>
0.31

> <Hydrogen bond donor count [MProp:scalar:integer]>
4

> <Hydrogen bond acceptor count [MProp:scalar:integer]>
6

> <Formal charge [MProp:scalar:integer]>
0

> <Topological polar surface area [A^2] [MProp:scalar:double]>
132.96

> <Polarizability [A^3] [MProp:scalar:double]>
35.27

> <Molar refractivity [cm^3/mol] [MProp:scalar:double]>
90.95

> <Van der Waals volume [A^3] [MProp:scalar:double]>
299.26

> <Minimum projection area [A^2] [MProp:scalar:double]>
43.92

> <Maximum projection area [A^2] [MProp:scalar:double]>
92.47

> <Minimum projection radius [A] [MProp:scalar:double]>
4.39

> <Maximum projection radius [A] [MProp:scalar:double]>
8.04

> <Van der Waals surface area [A^2] [MProp:scalar:double]>
443.98

> <Solvent accessible surface area [A^2] [MProp:scalar:double]>
499.95

> <Strongest acidic pKa [MProp:scalar:double]>
3.51

> <Strongest basic pKa [MProp:scalar:double]>
7.22

> <Isoelectric point [MProp:scalar:double]>
5.49

> <Intrinsic solubility [logS] [MProp:scalar:double]>
-3.52

> <Solubility category>
High

> <logP [MProp:scalar:double]>
-2.45

> <logD_PH0 [MProp:scalar:double]>
-6.64

> <logD_PH1 [MProp:scalar:double]>
-4.81

> <logD_PH2 [MProp:scalar:double]>
-3.54

> <logD_PH3 [MProp:scalar:double]>
-2.92

> <logD_PH4 [MProp:scalar:double]>
-2.53

> <logD_PH5 [MProp:scalar:double]>
-2.45

> <logD_PH6 [MProp:scalar:double]>
-2.46

> <logD_PH7 [MProp:scalar:double]>
-2.62

> <logD_PH8 [MProp:scalar:double]>
-3.17

> <logD_PH9 [MProp:scalar:double]>
-3.72

> <logD_PH10 [MProp:scalar:double]>
-4.33

> <logD_PH11 [MProp:scalar:double]>
-5.21

> <logD_PH12 [MProp:scalar:double]>
-6.06

> <logD_PH13 [MProp:scalar:double]>
-7.07

> <logD_PH14 [MProp:scalar:double]>
-8.14

> <HLB [MProp:scalar:double]>
27.86

> <IUPAC name>
(6R,7R)-7-[(2R)-2-amino-2-(4-hydroxyphenyl)acetamido]-3-methyl-8-oxo-5-thia-1-azabicyclo[4.2.0]oct-2-ene-2-carboxylic acid

> <SMILES>
CC1=C(N2[C@H](SC1)[C@H](NC(=O)[C@H](N)C1=CC=C(O)C=C1)C2=O)C(O)=O

> <InChI>
InChI=1S/C16H17N3O5S/c1-7-6-25-15-11(14(22)19(15)12(7)16(23)24)18-13(21)10(17)8-2-4-9(20)5-3-8/h2-5,10-11,15,20H,6,17H2,1H3,(H,18,21)(H,23,24)/t10-,11-,15-/m1/s1

> <InChIKey>
BOEGTKLJZSQCCD-UEKVPHQBSA-N

> <Traditional name>
cephadroxil

> <Common names>
D-cefadroxil; cefadroxil anhydrous; cefadroxilo; cefadroxilum; cephadroxil

> <CAS Registry Numbers(R)>
50370-12-2

$$$$
Cefamandole
  Mrv2222 01232613222D          

 31 34  0  0  1  0            999 V2000
    3.6090   -0.8090    0.0000 C   0  0  0  0  0  0  0  0  0  0  0  0
    4.2221   -0.2570    0.0000 N   0  0  0  0  0  0  0  0  0  0  0  0
    4.1358    0.5635    0.0000 C   0  0  0  0  0  0  0  0  0  0  0  0
    4.8895    0.8990    0.0000 N   0  0  0  0  0  0  0  0  0  0  0  0
    5.4415    0.2859    0.0000 N   0  0  0  0  0  0  0  0  0  0  0  0
    5.0290   -0.4285    0.0000 N   0  0  0  0  0  0  0  0  0  0  0  0
    3.4214    0.9760    0.0000 S   0  0  0  0  0  0  0  0  0  0  0  0
    2.7069    0.5635    0.0000 C   0  0  0  0  0  0  0  0  0  0  0  0
    1.9924    0.9760    0.0000 C   0  0  0  0  0  0  0  0  0  0  0  0
    1.2780    0.5635    0.0000 C   0  0  0  0  0  0  0  0  0  0  0  0
    0.5635    0.9760    0.0000 N   0  0  0  0  0  0  0  0  0  0  0  0
    0.5635    1.8010    0.0000 C   0  0  1  0  0  0  0  0  0  0  0  0
   -0.2615    1.8010    0.0000 C   0  0  1  0  0  0  0  0  0  0  0  0
   -0.2615    0.9760    0.0000 C   0  0  0  0  0  0  0  0  0  0  0  0
   -0.8449    0.3926    0.0000 O   0  0  0  0  0  0  0  0  0  0  0  0
   -0.8449    2.3843    0.0000 N   0  0  0  0  0  0  0  0  0  0  0  0
   -0.6314    3.1812    0.0000 C   0  0  0  0  0  0  0  0  0  0  0  0
    0.1655    3.3948    0.0000 O   0  0  0  0  0  0  0  0  0  0  0  0
   -1.2147    3.7646    0.0000 C   0  0  1  0  0  0  0  0  0  0  0  0
   -2.0116    3.5511    0.0000 C   0  0  0  0  0  0  0  0  0  0  0  0
   -2.2251    2.7542    0.0000 C   0  0  0  0  0  0  0  0  0  0  0  0
   -3.0220    2.5407    0.0000 C   0  0  0  0  0  0  0  0  0  0  0  0
   -3.6054    3.1240    0.0000 C   0  0  0  0  0  0  0  0  0  0  0  0
   -3.3919    3.9209    0.0000 C   0  0  0  0  0  0  0  0  0  0  0  0
   -2.5950    4.1344    0.0000 C   0  0  0  0  0  0  0  0  0  0  0  0
   -1.0012    4.5615    0.0000 O   0  0  0  0  0  0  0  0  0  0  0  0
    1.2780    2.2135    0.0000 S   0  0  0  0  0  0  0  0  0  0  0  0
    1.9924    1.8010    0.0000 C   0  0  0  0  0  0  0  0  0  0  0  0
    1.2780   -0.2615    0.0000 C   0  0  0  0  0  0  0  0  0  0  0  0
    0.5635   -0.6740    0.0000 O   0  0  0  0  0  0  0  0  0  0  0  0
    1.9924   -0.6740    0.0000 O   0  0  0  0  0  0  0  0  0  0  0  0
  1  2  1  0  0  0  0
  2  3  1  0  0  0  0
  3  4  2  0  0  0  0
  4  5  1  0  0  0  0
  5  6  2  0  0  0  0
  2  6  1  0  0  0  0
  3  7  1  0  0  0  0
  7  8  1  0  0  0  0
  8  9  1  0  0  0  0
  9 10  2  0  0  0  0
 10 11  1  0  0  0  0
 12 11  1  1  0  0  0
 12 13  1  0  0  0  0
 13 14  1  0  0  0  0
 11 14  1  0  0  0  0
 14 15  2  0  0  0  0
 13 16  1  1  0  0  0
 16 17  1  0  0  0  0
 17 18  2  0  0  0  0
 19 17  1  0  0  0  0
 19 20  1  0  0  0  0
 20 21  2  0  0  0  0
 21 22  1  0  0  0  0
 22 23  2  0  0  0  0
 23 24  1  0  0  0  0
 24 25  2  0  0  0  0
 20 25  1  0  0  0  0
 19 26  1  1  0  0  0
 12 27  1  0  0  0  0
 27 28  1  0  0  0  0
  9 28  1  0  0  0  0
 10 29  1  0  0  0  0
 29 30  2  0  0  0  0
 29 31  1  0  0  0  0
M  END
> <Molar mass [g/mol] [MProp:scalar:double]>
462.5

> <Exact mass [Da] [MProp:scalar:double]>
462.078010052

> <Formula>
C18H18N6O5S2

> <Composition>
C (46.75%), H (3.92%), N (18.17%), O (17.30%), S (13.86%)

> <Lipinski's rule of five [MProp:scalar:boolean]>
true

> <Atom count [MProp:scalar:integer]>
49

> <Heavy atom count [MProp:scalar:integer]>
31

> <Asymmetric atom count [MProp:scalar:integer]>
3

> <Rotatable bond count [MProp:scalar:integer]>
7

> <Ring count [MProp:scalar:integer]>
4

> <Aromatic ring count [MProp:scalar:integer]>
2

> <Hetero ring count [MProp:scalar:integer]>
3

> <FSP3 [MProp:scalar:double]>
0.33

> <Hydrogen bond donor count [MProp:scalar:integer]>
3

> <Hydrogen bond acceptor count [MProp:scalar:integer]>
8

> <Formal charge [MProp:scalar:integer]>
0

> <Topological polar surface area [A^2] [MProp:scalar:double]>
150.54

> <Polarizability [A^3] [MProp:scalar:double]>
43.36

> <Molar refractivity [cm^3/mol] [MProp:scalar:double]>
126.65

> <Van der Waals volume [A^3] [MProp:scalar:double]>
364.75

> <Minimum projection area [A^2] [MProp:scalar:double]>
58.25

> <Maximum projection area [A^2] [MProp:scalar:double]>
98.53

> <Minimum projection radius [A] [MProp:scalar:double]>
5.1

> <Maximum projection radius [A] [MProp:scalar:double]>
7.56

> <Van der Waals surface area [A^2] [MProp:scalar:double]>
542.56

> <Solvent accessible surface area [A^2] [MProp:scalar:double]>
616.98

> <Strongest acidic pKa [MProp:scalar:double]>
3.41

> <Strongest basic pKa [MProp:scalar:double]>
2.11

> <Isoelectric point [MProp:scalar:double]>
2.78

> <Intrinsic solubility [logS] [MProp:scalar:double]>
-4.6

> <Solubility category>
Moderate

> <logP [MProp:scalar:double]>
-0.24

> <logD_PH0 [MProp:scalar:double]>
-3.64

> <logD_PH1 [MProp:scalar:double]>
-1.79

> <logD_PH2 [MProp:scalar:double]>
-0.5

> <logD_PH3 [MProp:scalar:double]>
-0.24

> <logD_PH4 [MProp:scalar:double]>
-0.75

> <logD_PH5 [MProp:scalar:double]>
-1.66

> <logD_PH6 [MProp:scalar:double]>
-2.6

> <logD_PH7 [MProp:scalar:double]>
-3.27

> <logD_PH8 [MProp:scalar:double]>
-3.47

> <logD_PH9 [MProp:scalar:double]>
-3.5

> <logD_PH10 [MProp:scalar:double]>
-3.52

> <logD_PH11 [MProp:scalar:double]>
-3.68

> <logD_PH12 [MProp:scalar:double]>
-4.21

> <logD_PH13 [MProp:scalar:double]>
-5.09

> <logD_PH14 [MProp:scalar:double]>
-6.65

> <HLB [MProp:scalar:double]>
23.01

> <IUPAC name>
(6R,7R)-7-[(2R)-2-hydroxy-2-phenylacetamido]-3-{[(1-methyl-1H-1,2,3,4-tetrazol-5-yl)sulfanyl]methyl}-8-oxo-5-thia-1-azabicyclo[4.2.0]oct-2-ene-2-carboxylic acid

> <SMILES>
CN1N=NN=C1SCC1=C(N2[C@H](SC1)[C@H](NC(=O)[C@H](O)C1=CC=CC=C1)C2=O)C(O)=O

> <InChI>
InChI=1S/C18H18N6O5S2/c1-23-18(20-21-22-23)31-8-10-7-30-16-11(15(27)24(16)12(10)17(28)29)19-14(26)13(25)9-5-3-2-4-6-9/h2-6,11,13,16,25H,7-8H2,1H3,(H,19,26)(H,28,29)/t11-,13-,16-/m1/s1

> <InChIKey>
OLVCFLKTBJRLHI-AXAPSJFSSA-N

> <Traditional name>
cefamandole

> <Common names>
L-cefamandole; cefadole; cefamandol; cefamandole; cefamandolum; cephadole; cephamandole

> <CAS Registry Numbers(R)>
34444-01-4

$$$$
Cefazolin
  Mrv2222 01232613222D          

 29 32  0  0  1  0            999 V2000
    6.2620    0.3722    0.0000 C   0  0  0  0  0  0  0  0  0  0  0  0
    5.4415    0.2859    0.0000 C   0  0  0  0  0  0  0  0  0  0  0  0
    5.0290   -0.4285    0.0000 N   0  0  0  0  0  0  0  0  0  0  0  0
    4.2221   -0.2570    0.0000 N   0  0  0  0  0  0  0  0  0  0  0  0
    4.1358    0.5635    0.0000 C   0  0  0  0  0  0  0  0  0  0  0  0
    4.8895    0.8990    0.0000 S   0  0  0  0  0  0  0  0  0  0  0  0
    3.4214    0.9760    0.0000 S   0  0  0  0  0  0  0  0  0  0  0  0
    2.7069    0.5635    0.0000 C   0  0  0  0  0  0  0  0  0  0  0  0
    1.9924    0.9760    0.0000 C   0  0  0  0  0  0  0  0  0  0  0  0
    1.2780    0.5635    0.0000 C   0  0  0  0  0  0  0  0  0  0  0  0
    0.5635    0.9760    0.0000 N   0  0  0  0  0  0  0  0  0  0  0  0
    0.5635    1.8010    0.0000 C   0  0  1  0  0  0  0  0  0  0  0  0
   -0.2615    1.8010    0.0000 C   0  0  1  0  0  0  0  0  0  0  0  0
   -0.2615    0.9760    0.0000 C   0  0  0  0  0  0  0  0  0  0  0  0
   -0.8449    0.3926    0.0000 O   0  0  0  0  0  0  0  0  0  0  0  0
   -0.8449    2.3843    0.0000 N   0  0  0  0  0  0  0  0  0  0  0  0
   -0.6314    3.1812    0.0000 C   0  0  0  0  0  0  0  0  0  0  0  0
    0.1655    3.3948    0.0000 O   0  0  0  0  0  0  0  0  0  0  0  0
   -1.2147    3.7646    0.0000 C   0  0  0  0  0  0  0  0  0  0  0  0
   -1.0012    4.5615    0.0000 N   0  0  0  0  0  0  0  0  0  0  0  0
   -1.5204    5.2026    0.0000 C   0  0  0  0  0  0  0  0  0  0  0  0
   -1.0711    5.8945    0.0000 N   0  0  0  0  0  0  0  0  0  0  0  0
   -0.2742    5.6810    0.0000 N   0  0  0  0  0  0  0  0  0  0  0  0
   -0.2310    4.8571    0.0000 N   0  0  0  0  0  0  0  0  0  0  0  0
    1.2780    2.2135    0.0000 S   0  0  0  0  0  0  0  0  0  0  0  0
    1.9924    1.8010    0.0000 C   0  0  0  0  0  0  0  0  0  0  0  0
    1.2780   -0.2615    0.0000 C   0  0  0  0  0  0  0  0  0  0  0  0
    0.5635   -0.6740    0.0000 O   0  0  0  0  0  0  0  0  0  0  0  0
    1.9924   -0.6740    0.0000 O   0  0  0  0  0  0  0  0  0  0  0  0
  1  2  1  0  0  0  0
  2  3  2  0  0  0  0
  3  4  1  0  0  0  0
  4  5  2  0  0  0  0
  5  6  1  0  0  0  0
  2  6  1  0  0  0  0
  5  7  1  0  0  0  0
  7  8  1  0  0  0  0
  8  9  1  0  0  0  0
  9 10  2  0  0  0  0
 10 11  1  0  0  0  0
 12 11  1  1  0  0  0
 12 13  1  0  0  0  0
 13 14  1  0  0  0  0
 11 14  1  0  0  0  0
 14 15  2  0  0  0  0
 13 16  1  1  0  0  0
 16 17  1  0  0  0  0
 17 18  2  0  0  0  0
 17 19  1  0  0  0  0
 19 20  1  0  0  0  0
 20 21  1  0  0  0  0
 21 22  2  0  0  0  0
 22 23  1  0  0  0  0
 23 24  2  0  0  0  0
 20 24  1  0  0  0  0
 12 25  1  0  0  0  0
 25 26  1  0  0  0  0
  9 26  1  0  0  0  0
 10 27  1  0  0  0  0
 27 28  2  0  0  0  0
 27 29  1  0  0  0  0
M  END
> <Molar mass [g/mol] [MProp:scalar:double]>
454.5

> <Exact mass [Da] [MProp:scalar:double]>
454.030014485

> <Formula>
C14H14N8O4S3

> <Composition>
C (37.00%), H (3.10%), N (24.65%), O (14.08%), S (21.16%)

> <Lipinski's rule of five [MProp:scalar:boolean]>
true

> <Atom count [MProp:scalar:integer]>
43

> <Heavy atom count [MProp:scalar:integer]>
29

> <Asymmetric atom count [MProp:scalar:integer]>
2

> <Rotatable bond count [MProp:scalar:integer]>
7

> <Ring count [MProp:scalar:integer]>
4

> <Aromatic ring count [MProp:scalar:integer]>
2

> <Hetero ring count [MProp:scalar:integer]>
4

> <FSP3 [MProp:scalar:double]>
0.43

> <Hydrogen bond donor count [MProp:scalar:integer]>
2

> <Hydrogen bond acceptor count [MProp:scalar:integer]>
9

> <Formal charge [MProp:scalar:integer]>
0

> <Topological polar surface area [A^2] [MProp:scalar:double]>
156.09

> <Polarizability [A^3] [MProp:scalar:double]>
39.86

> <Molar refractivity [cm^3/mol] [MProp:scalar:double]>
119.86

> <Van der Waals volume [A^3] [MProp:scalar:double]>
339.08

> <Minimum projection area [A^2] [MProp:scalar:double]>
62.38

> <Maximum projection area [A^2] [MProp:scalar:double]>
94.54

> <Minimum projection radius [A] [MProp:scalar:double]>
5.38

> <Maximum projection radius [A] [MProp:scalar:double]>
7.64

> <Van der Waals surface area [A^2] [MProp:scalar:double]>
500.9

> <Solvent accessible surface area [A^2] [MProp:scalar:double]>
613.95

> <Strongest acidic pKa [MProp:scalar:double]>
3.03

> <Strongest basic pKa [MProp:scalar:double]>
1.66

> <Isoelectric point [MProp:scalar:double]>
2.44

> <Intrinsic solubility [logS] [MProp:scalar:double]>
-4.13

> <Solubility category>
Moderate

> <logP [MProp:scalar:double]>
-1.91

> <logD_PH0 [MProp:scalar:double]>
-5.18

> <logD_PH1 [MProp:scalar:double]>
-3.02

> <logD_PH2 [MProp:scalar:double]>
-1.95

> <logD_PH3 [MProp:scalar:double]>
-1.91

> <logD_PH4 [MProp:scalar:double]>
-2.55

> <logD_PH5 [MProp:scalar:double]>
-3.49

> <logD_PH6 [MProp:scalar:double]>
-4.39

> <logD_PH7 [MProp:scalar:double]>
-4.92

> <logD_PH8 [MProp:scalar:double]>
-5.03

> <logD_PH9 [MProp:scalar:double]>
-5.05

> <logD_PH10 [MProp:scalar:double]>
-5.1

> <logD_PH11 [MProp:scalar:double]>
-5.36

> <logD_PH12 [MProp:scalar:double]>
-5.88

> <logD_PH13 [MProp:scalar:double]>
-6.44

> <logD_PH14 [MProp:scalar:double]>
-7.3

> <HLB [MProp:scalar:double]>
23.61

> <IUPAC name>
(6R,7R)-3-{[(5-methyl-1,3,4-thiadiazol-2-yl)sulfanyl]methyl}-8-oxo-7-[2-(1H-1,2,3,4-tetrazol-1-yl)acetamido]-5-thia-1-azabicyclo[4.2.0]oct-2-ene-2-carboxylic acid

> <SMILES>
CC1=NN=C(SCC2=C(N3[C@H](SC2)[C@H](NC(=O)CN2C=NN=N2)C3=O)C(O)=O)S1

> <InChI>
InChI=1S/C14H14N8O4S3/c1-6-17-18-14(29-6)28-4-7-3-27-12-9(11(24)22(12)10(7)13(25)26)16-8(23)2-21-5-15-19-20-21/h5,9,12H,2-4H2,1H3,(H,16,23)(H,25,26)/t9-,12-/m1/s1

> <InChIKey>
MLYYVTUWGNIJIB-BXKDBHETSA-N

> <Traditional name>
cefazolin

> <Common names>
cefamezin; cefazolin; cefazolina; cefazolinum; cephamezine; cephazolidin; cephazoline

> <CAS Registry Numbers(R)>
25953-19-9

$$$$
Cefdinir
  Mrv2222 01232613222D          

 26 28  0  0  1  0            999 V2000
    3.4214    0.9760    0.0000 C   0  0  0  0  0  0  0  0  0  0  0  0
    2.7069    0.5635    0.0000 C   0  0  0  0  0  0  0  0  0  0  0  0
    1.9924    0.9760    0.0000 C   0  0  0  0  0  0  0  0  0  0  0  0
    1.2780    0.5635    0.0000 C   0  0  0  0  0  0  0  0  0  0  0  0
    0.5635    0.9760    0.0000 N   0  0  0  0  0  0  0  0  0  0  0  0
    0.5635    1.8010    0.0000 C   0  0  1  0  0  0  0  0  0  0  0  0
   -0.2615    1.8010    0.0000 C   0  0  1  0  0  0  0  0  0  0  0  0
   -0.2615    0.9760    0.0000 C   0  0  0  0  0  0  0  0  0  0  0  0
   -0.8449    0.3926    0.0000 O   0  0  0  0  0  0  0  0  0  0  0  0
   -0.8449    2.3843    0.0000 N   0  0  0  0  0  0  0  0  0  0  0  0
   -1.6418    2.1708    0.0000 C   0  0  0  0  0  0  0  0  0  0  0  0
   -1.8553    1.3739    0.0000 O   0  0  0  0  0  0  0  0  0  0  0  0
   -2.2251    2.7542    0.0000 C   0  0  0  0  0  0  0  0  0  0  0  0
   -2.0116    3.5511    0.0000 N   0  0  0  0  0  0  0  0  0  0  0  0
   -1.2147    3.7646    0.0000 O   0  0  0  0  0  0  0  0  0  0  0  0
   -3.0220    2.5407    0.0000 C   0  0  0  0  0  0  0  0  0  0  0  0
   -3.3177    1.7705    0.0000 C   0  0  0  0  0  0  0  0  0  0  0  0
   -4.1415    1.8136    0.0000 S   0  0  0  0  0  0  0  0  0  0  0  0
   -4.3551    2.6105    0.0000 C   0  0  0  0  0  0  0  0  0  0  0  0
   -3.6632    3.0598    0.0000 N   0  0  0  0  0  0  0  0  0  0  0  0
   -5.1253    2.9062    0.0000 N   0  0  0  0  0  0  0  0  0  0  0  0
    1.2780    2.2135    0.0000 S   0  0  0  0  0  0  0  0  0  0  0  0
    1.9924    1.8010    0.0000 C   0  0  0  0  0  0  0  0  0  0  0  0
    1.2780   -0.2615    0.0000 C   0  0  0  0  0  0  0  0  0  0  0  0
    0.5635   -0.6740    0.0000 O   0  0  0  0  0  0  0  0  0  0  0  0
    1.9924   -0.6740    0.0000 O   0  0  0  0  0  0  0  0  0  0  0  0
  1  2  2  0  0  0  0
  2  3  1  0  0  0  0
  3  4  2  0  0  0  0
  4  5  1  0  0  0  0
  6  5  1  1  0  0  0
  6  7  1  0  0  0  0
  7  8  1  0  0  0  0
  5  8  1  0  0  0  0
  8  9  2  0  0  0  0
  7 10  1  1  0  0  0
 10 11  1  0  0  0  0
 11 12  2  0  0  0  0
 11 13  1  0  0  0  0
 13 14  2  0  0  0  0
 14 15  1  0  0  0  0
 13 16  1  0  0  0  0
 16 17  2  0  0  0  0
 17 18  1  0  0  0  0
 18 19  1  0  0  0  0
 19 20  2  0  0  0  0
 16 20  1  0  0  0  0
 19 21  1  0  0  0  0
  6 22  1  0  0  0  0
 22 23  1  0  0  0  0
  3 23  1  0  0  0  0
  4 24  1  0  0  0  0
 24 25  2  0  0  0  0
 24 26  1  0  0  0  0
M  END
> <Molar mass [g/mol] [MProp:scalar:double]>
395.41

> <Exact mass [Da] [MProp:scalar:double]>
395.035810887

> <Formula>
C14H13N5O5S2

> <Composition>
C (42.53%), H (3.31%), N (17.71%), O (20.23%), S (16.22%)

> <Lipinski's rule of five [MProp:scalar:boolean]>
true

> <Atom count [MProp:scalar:integer]>
39

> <Heavy atom count [MProp:scalar:integer]>
26

> <Asymmetric atom count [MProp:scalar:integer]>
2

> <Rotatable bond count [MProp:scalar:integer]>
5

> <Ring count [MProp:scalar:integer]>
3

> <Aromatic ring count [MProp:scalar:integer]>
1

> <Hetero ring count [MProp:scalar:integer]>
3

> <FSP3 [MProp:scalar:double]>
0.21

> <Hydrogen bond donor count [MProp:scalar:integer]>
4

> <Hydrogen bond acceptor count [MProp:scalar:integer]>
8

> <Formal charge [MProp:scalar:integer]>
0

> <Topological polar surface area [A^2] [MProp:scalar:double]>
158.21

> <Polarizability [A^3] [MProp:scalar:double]>
35.27

> <Molar refractivity [cm^3/mol] [MProp:scalar:double]>
94.34

> <Van der Waals volume [A^3] [MProp:scalar:double]>
300.14

> <Minimum projection area [A^2] [MProp:scalar:double]>
54.22

> <Maximum projection area [A^2] [MProp:scalar:double]>
89.42

> <Minimum projection radius [A] [MProp:scalar:double]>
5.32

> <Maximum projection radius [A] [MProp:scalar:double]>
7.2

> <Van der Waals surface area [A^2] [MProp:scalar:double]>
417.13

> <Solvent accessible surface area [A^2] [MProp:scalar:double]>
451.91

> <Strongest acidic pKa [MProp:scalar:double]>
2.92

> <Strongest basic pKa [MProp:scalar:double]>
3.7

> <Isoelectric point [MProp:scalar:double]>
3.29

> <Intrinsic solubility [logS] [MProp:scalar:double]>
-4.28

> <Solubility category>
Moderate

> <logP [MProp:scalar:double]>
-0.82

> <logD_PH0 [MProp:scalar:double]>
-3.29

> <logD_PH1 [MProp:scalar:double]>
-2.1

> <logD_PH2 [MProp:scalar:double]>
-1.37

> <logD_PH3 [MProp:scalar:double]>
-0.82

> <logD_PH4 [MProp:scalar:double]>
-1.02

> <logD_PH5 [MProp:scalar:double]>
-1.85

> <logD_PH6 [MProp:scalar:double]>
-2.78

> <logD_PH7 [MProp:scalar:double]>
-3.48

> <logD_PH8 [MProp:scalar:double]>
-3.95

> <logD_PH9 [MProp:scalar:double]>
-4.71

> <logD_PH10 [MProp:scalar:double]>
-5.53

> <logD_PH11 [MProp:scalar:double]>
-5.95

> <logD_PH12 [MProp:scalar:double]>
-6.14

> <logD_PH13 [MProp:scalar:double]>
-6.66

> <logD_PH14 [MProp:scalar:double]>
-7.55

> <HLB [MProp:scalar:double]>
23.11

> <IUPAC name>
(6R,7R)-7-[(2Z)-2-(2-amino-1,3-thiazol-4-yl)-2-(N-hydroxyimino)acetamido]-3-ethenyl-8-oxo-5-thia-1-azabicyclo[4.2.0]oct-2-ene-2-carboxylic acid

> <SMILES>
NC1=NC(=CS1)C(=N\O)\C(=O)N[C@H]1[C@H]2SCC(C=C)=C(N2C1=O)C(O)=O

> <InChI>
InChI=1S/C14H13N5O5S2/c1-2-5-3-25-12-8(11(21)19(12)9(5)13(22)23)17-10(20)7(18-24)6-4-26-14(15)16-6/h2,4,8,12,24H,1,3H2,(H2,15,16)(H,17,20)(H,22,23)/b18-7-/t8-,12-/m1/s1

> <InChIKey>
RTXOFQZKPXMALH-GHXIOONMSA-N

> <Traditional name>
cefdinir

> <Common names>
CFDN; abbott brand of cefdinir; cefdinir; cefdinir (substance); cefdinir preparation; cefdinir product; cefdinir product (product); cefdinirum; cefdinyl; cefdirnir; cefzon; omnicef

> <CAS Registry Numbers(R)>
91832-40-5

$$$$
Cefditoren
  Mrv2222 01232613222D          

 33 36  0  0  1  0            999 V2000
    4.8734    2.0310    0.0000 C   0  0  0  0  0  0  0  0  0  0  0  0
    4.0888    2.2859    0.0000 C   0  0  0  0  0  0  0  0  0  0  0  0
    3.4214    1.8010    0.0000 C   0  0  0  0  0  0  0  0  0  0  0  0
    2.7539    2.2859    0.0000 S   0  0  0  0  0  0  0  0  0  0  0  0
    3.0089    3.0705    0.0000 C   0  0  0  0  0  0  0  0  0  0  0  0
    3.8339    3.0705    0.0000 N   0  0  0  0  0  0  0  0  0  0  0  0
    3.4214    0.9760    0.0000 C   0  0  0  0  0  0  0  0  0  0  0  0
    2.7069    0.5635    0.0000 C   0  0  0  0  0  0  0  0  0  0  0  0
    1.9924    0.9760    0.0000 C   0  0  0  0  0  0  0  0  0  0  0  0
    1.2780    0.5635    0.0000 C   0  0  0  0  0  0  0  0  0  0  0  0
    0.5635    0.9760    0.0000 N   0  0  0  0  0  0  0  0  0  0  0  0
    0.5635    1.8010    0.0000 C   0  0  1  0  0  0  0  0  0  0  0  0
   -0.2615    1.8010    0.0000 C   0  0  1  0  0  0  0  0  0  0  0  0
   -0.2615    0.9760    0.0000 C   0  0  0  0  0  0  0  0  0  0  0  0
   -0.8449    0.3926    0.0000 O   0  0  0  0  0  0  0  0  0  0  0  0
   -0.8449    2.3843    0.0000 N   0  0  0  0  0  0  0  0  0  0  0  0
   -1.6418    2.1708    0.0000 C   0  0  0  0  0  0  0  0  0  0  0  0
   -1.8553    1.3739    0.0000 O   0  0  0  0  0  0  0  0  0  0  0  0
   -2.2251    2.7542    0.0000 C   0  0  0  0  0  0  0  0  0  0  0  0
   -2.0116    3.5511    0.0000 N   0  0  0  0  0  0  0  0  0  0  0  0
   -1.2147    3.7646    0.0000 O   0  0  0  0  0  0  0  0  0  0  0  0
   -1.0012    4.5615    0.0000 C   0  0  0  0  0  0  0  0  0  0  0  0
   -3.0220    2.5407    0.0000 C   0  0  0  0  0  0  0  0  0  0  0  0
   -3.3177    1.7705    0.0000 C   0  0  0  0  0  0  0  0  0  0  0  0
   -4.1415    1.8136    0.0000 S   0  0  0  0  0  0  0  0  0  0  0  0
   -4.3551    2.6105    0.0000 C   0  0  0  0  0  0  0  0  0  0  0  0
   -3.6632    3.0598    0.0000 N   0  0  0  0  0  0  0  0  0  0  0  0
   -5.1253    2.9062    0.0000 N   0  0  0  0  0  0  0  0  0  0  0  0
    1.2780    2.2135    0.0000 S   0  0  0  0  0  0  0  0  0  0  0  0
    1.9924    1.8010    0.0000 C   0  0  0  0  0  0  0  0  0  0  0  0
    1.2780   -0.2615    0.0000 C   0  0  0  0  0  0  0  0  0  0  0  0
    0.5635   -0.6740    0.0000 O   0  0  0  0  0  0  0  0  0  0  0  0
    1.9924   -0.6740    0.0000 O   0  0  0  0  0  0  0  0  0  0  0  0
  1  2  1  0  0  0  0
  2  3  2  0  0  0  0
  3  4  1  0  0  0  0
  4  5  1  0  0  0  0
  5  6  2  0  0  0  0
  2  6  1  0  0  0  0
  3  7  1  0  0  0  0
  7  8  2  0  0  0  0
  8  9  1  0  0  0  0
  9 10  2  0  0  0  0
 10 11  1  0  0  0  0
 12 11  1  1  0  0  0
 12 13  1  0  0  0  0
 13 14  1  0  0  0  0
 11 14  1  0  0  0  0
 14 15  2  0  0  0  0
 13 16  1  1  0  0  0
 16 17  1  0  0  0  0
 17 18  2  0  0  0  0
 17 19  1  0  0  0  0
 19 20  2  0  0  0  0
 20 21  1  0  0  0  0
 21 22  1  0  0  0  0
 19 23  1  0  0  0  0
 23 24  2  0  0  0  0
 24 25  1  0  0  0  0
 25 26  1  0  0  0  0
 26 27  2  0  0  0  0
 23 27  1  0  0  0  0
 26 28  1  0  0  0  0
 12 29  1  0  0  0  0
 29 30  1  0  0  0  0
  9 30  1  0  0  0  0
 10 31  1  0  0  0  0
 31 32  2  0  0  0  0
 31 33  1  0  0  0  0
M  END
> <Molar mass [g/mol] [MProp:scalar:double]>
506.57

> <Exact mass [Da] [MProp:scalar:double]>
506.050081226

> <Formula>
C19H18N6O5S3

> <Composition>
C (45.05%), H (3.58%), N (16.59%), O (15.79%), S (18.99%)

> <Lipinski's rule of five [MProp:scalar:boolean]>
false

> <Atom count [MProp:scalar:integer]>
51

> <Heavy atom count [MProp:scalar:integer]>
33

> <Asymmetric atom count [MProp:scalar:integer]>
2

> <Rotatable bond count [MProp:scalar:integer]>
7

> <Ring count [MProp:scalar:integer]>
4

> <Aromatic ring count [MProp:scalar:integer]>
2

> <Hetero ring count [MProp:scalar:integer]>
4

> <FSP3 [MProp:scalar:double]>
0.26

> <Hydrogen bond donor count [MProp:scalar:integer]>
3

> <Hydrogen bond acceptor count [MProp:scalar:integer]>
9

> <Formal charge [MProp:scalar:integer]>
0

> <Topological polar surface area [A^2] [MProp:scalar:double]>
160.1

> <Polarizability [A^3] [MProp:scalar:double]>
46.24

> <Molar refractivity [cm^3/mol] [MProp:scalar:double]>
124.18

> <Van der Waals volume [A^3] [MProp:scalar:double]>
392.14

> <Minimum projection area [A^2] [MProp:scalar:double]>
65.28

> <Maximum projection area [A^2] [MProp:scalar:double]>
118.32

> <Minimum projection radius [A] [MProp:scalar:double]>
6.07

> <Maximum projection radius [A] [MProp:scalar:double]>
8.43

> <Van der Waals surface area [A^2] [MProp:scalar:double]>
565.13

> <Solvent accessible surface area [A^2] [MProp:scalar:double]>
669.7

> <Strongest acidic pKa [MProp:scalar:double]>
2.46

> <Strongest basic pKa [MProp:scalar:double]>
3.75

> <Isoelectric point [MProp:scalar:double]>
3.36

> <Intrinsic solubility [logS] [MProp:scalar:double]>
-5.42

> <Solubility category>
Low

> <logP [MProp:scalar:double]>
-0.16

> <logD_PH0 [MProp:scalar:double]>
-3.14

> <logD_PH1 [MProp:scalar:double]>
-1.77

> <logD_PH2 [MProp:scalar:double]>
-0.9

> <logD_PH3 [MProp:scalar:double]>
-0.09

> <logD_PH4 [MProp:scalar:double]>
-0.16

> <logD_PH5 [MProp:scalar:double]>
-0.97

> <logD_PH6 [MProp:scalar:double]>
-1.89

> <logD_PH7 [MProp:scalar:double]>
-2.54

> <logD_PH8 [MProp:scalar:double]>
-2.73

> <logD_PH9 [MProp:scalar:double]>
-2.76

> <logD_PH10 [MProp:scalar:double]>
-2.8

> <logD_PH11 [MProp:scalar:double]>
-3.11

> <logD_PH12 [MProp:scalar:double]>
-4.04

> <logD_PH13 [MProp:scalar:double]>
-5.11

> <logD_PH14 [MProp:scalar:double]>
-6.06

> <HLB [MProp:scalar:double]>
21.85

> <IUPAC name>
(6R,7R)-7-[(2Z)-2-(2-amino-1,3-thiazol-4-yl)-2-(methoxyimino)acetamido]-3-[(1Z)-2-(4-methyl-1,3-thiazol-5-yl)ethenyl]-8-oxo-5-thia-1-azabicyclo[4.2.0]oct-2-ene-2-carboxylic acid

> <SMILES>
CO\N=C(/C(=O)N[C@H]1[C@H]2SCC(\C=C/C3=C(C)N=CS3)=C(N2C1=O)C(O)=O)C1=CSC(N)=N1

> <InChI>
InChI=1S/C19H18N6O5S3/c1-8-11(33-7-21-8)4-3-9-5-31-17-13(16(27)25(17)14(9)18(28)29)23-15(26)12(24-30-2)10-6-32-19(20)22-10/h3-4,6-7,13,17H,5H2,1-2H3,(H2,20,22)(H,23,26)(H,28,29)/b4-3-,24-12-/t13-,17-/m1/s1

> <InChIKey>
KMIPKYQIOVAHOP-YLGJWRNMSA-N

> <Traditional name>
cefditoren

> <Common names>
cefditoren

> <CAS Registry Numbers(R)>
104145-95-1

$$$$
Cefixime
  Mrv2222 01232613222D          

 30 32  0  0  1  0            999 V2000
    3.4214    0.9760    0.0000 C   0  0  0  0  0  0  0  0  0  0  0  0
    2.7069    0.5635    0.0000 C   0  0  0  0  0  0  0  0  0  0  0  0
    1.9924    0.9760    0.0000 C   0  0  0  0  0  0  0  0  0  0  0  0
    1.2780    0.5635    0.0000 C   0  0  0  0  0  0  0  0  0  0  0  0
    0.5635    0.9760    0.0000 N   0  0  0  0  0  0  0  0  0  0  0  0
    0.5635    1.8010    0.0000 C   0  0  1  0  0  0  0  0  0  0  0  0
   -0.2615    1.8010    0.0000 C   0  0  1  0  0  0  0  0  0  0  0  0
   -0.2615    0.9760    0.0000 C   0  0  0  0  0  0  0  0  0  0  0  0
   -0.8449    0.3926    0.0000 O   0  0  0  0  0  0  0  0  0  0  0  0
   -0.8449    2.3843    0.0000 N   0  0  0  0  0  0  0  0  0  0  0  0
   -1.6418    2.1708    0.0000 C   0  0  0  0  0  0  0  0  0  0  0  0
   -1.8553    1.3739    0.0000 O   0  0  0  0  0  0  0  0  0  0  0  0
   -2.2251    2.7542    0.0000 C   0  0  0  0  0  0  0  0  0  0  0  0
   -3.0220    2.5407    0.0000 N   0  0  0  0  0  0  0  0  0  0  0  0
   -3.2355    1.7438    0.0000 O   0  0  0  0  0  0  0  0  0  0  0  0
   -2.6522    1.1604    0.0000 C   0  0  0  0  0  0  0  0  0  0  0  0
   -2.8657    0.3635    0.0000 C   0  0  0  0  0  0  0  0  0  0  0  0
   -3.6626    0.1500    0.0000 O   0  0  0  0  0  0  0  0  0  0  0  0
   -2.2823   -0.2198    0.0000 O   0  0  0  0  0  0  0  0  0  0  0  0
   -2.0116    3.5511    0.0000 C   0  0  0  0  0  0  0  0  0  0  0  0
   -2.5308    4.1922    0.0000 C   0  0  0  0  0  0  0  0  0  0  0  0
   -2.0815    4.8841    0.0000 S   0  0  0  0  0  0  0  0  0  0  0  0
   -1.2846    4.6706    0.0000 C   0  0  0  0  0  0  0  0  0  0  0  0
   -1.2414    3.8467    0.0000 N   0  0  0  0  0  0  0  0  0  0  0  0
   -0.6434    5.1898    0.0000 N   0  0  0  0  0  0  0  0  0  0  0  0
    1.2780    2.2135    0.0000 S   0  0  0  0  0  0  0  0  0  0  0  0
    1.9924    1.8010    0.0000 C   0  0  0  0  0  0  0  0  0  0  0  0
    1.2780   -0.2615    0.0000 C   0  0  0  0  0  0  0  0  0  0  0  0
    0.5635   -0.6740    0.0000 O   0  0  0  0  0  0  0  0  0  0  0  0
    1.9924   -0.6740    0.0000 O   0  0  0  0  0  0  0  0  0  0  0  0
  1  2  2  0  0  0  0
  2  3  1  0  0  0  0
  3  4  2  0  0  0  0
  4  5  1  0  0  0  0
  6  5  1  1  0  0  0
  6  7  1  0  0  0  0
  7  8  1  0  0  0  0
  5  8  1  0  0  0  0
  8  9  2  0  0  0  0
  7 10  1  1  0  0  0
 10 11  1  0  0  0  0
 11 12  2  0  0  0  0
 11 13  1  0  0  0  0
 13 14  2  0  0  0  0
 14 15  1  0  0  0  0
 15 16  1  0  0  0  0
 16 17  1  0  0  0  0
 17 18  2  0  0  0  0
 17 19  1  0  0  0  0
 13 20  1  0  0  0  0
 20 21  2  0  0  0  0
 21 22  1  0  0  0  0
 22 23  1  0  0  0  0
 23 24  2  0  0  0  0
 20 24  1  0  0  0  0
 23 25  1  0  0  0  0
  6 26  1  0  0  0  0
 26 27  1  0  0  0  0
  3 27  1  0  0  0  0
  4 28  1  0  0  0  0
 28 29  2  0  0  0  0
 28 30  1  0  0  0  0
M  END
> <Molar mass [g/mol] [MProp:scalar:double]>
453.44

> <Exact mass [Da] [MProp:scalar:double]>
453.041290191

> <Formula>
C16H15N5O7S2

> <Composition>
C (42.38%), H (3.33%), N (15.45%), O (24.70%), S (14.14%)

> <Lipinski's rule of five [MProp:scalar:boolean]>
true

> <Atom count [MProp:scalar:integer]>
45

> <Heavy atom count [MProp:scalar:integer]>
30

> <Asymmetric atom count [MProp:scalar:integer]>
2

> <Rotatable bond count [MProp:scalar:integer]>
8

> <Ring count [MProp:scalar:integer]>
3

> <Aromatic ring count [MProp:scalar:integer]>
1

> <Hetero ring count [MProp:scalar:integer]>
3

> <FSP3 [MProp:scalar:double]>
0.25

> <Hydrogen bond donor count [MProp:scalar:integer]>
4

> <Hydrogen bond acceptor count [MProp:scalar:integer]>
10

> <Formal charge [MProp:scalar:integer]>
0

> <Topological polar surface area [A^2] [MProp:scalar:double]>
184.51

> <Polarizability [A^3] [MProp:scalar:double]>
39.59

> <Molar refractivity [cm^3/mol] [MProp:scalar:double]>
104.91

> <Van der Waals volume [A^3] [MProp:scalar:double]>
345.32

> <Minimum projection area [A^2] [MProp:scalar:double]>
52.39

> <Maximum projection area [A^2] [MProp:scalar:double]>
112.07

> <Minimum projection radius [A] [MProp:scalar:double]>
5.38

> <Maximum projection radius [A] [MProp:scalar:double]>
8.97

> <Van der Waals surface area [A^2] [MProp:scalar:double]>
492.88

> <Solvent accessible surface area [A^2] [MProp:scalar:double]>
597.12

> <Strongest acidic pKa [MProp:scalar:double]>
2.66

> <Strongest basic pKa [MProp:scalar:double]>
4.1

> <Isoelectric point [MProp:scalar:double]>
2.92

> <Intrinsic solubility [logS] [MProp:scalar:double]>
-4.59

> <Solubility category>
Moderate

> <logP [MProp:scalar:double]>
-1.2

> <logD_PH0 [MProp:scalar:double]>
-3.66

> <logD_PH1 [MProp:scalar:double]>
-2.29

> <logD_PH2 [MProp:scalar:double]>
-1.54

> <logD_PH3 [MProp:scalar:double]>
-1.2

> <logD_PH4 [MProp:scalar:double]>
-1.93

> <logD_PH5 [MProp:scalar:double]>
-3.57

> <logD_PH6 [MProp:scalar:double]>
-5.43

> <logD_PH7 [MProp:scalar:double]>
-6.82

> <logD_PH8 [MProp:scalar:double]>
-7.26

> <logD_PH9 [MProp:scalar:double]>
-7.33

> <logD_PH10 [MProp:scalar:double]>
-7.36

> <logD_PH11 [MProp:scalar:double]>
-7.61

> <logD_PH12 [MProp:scalar:double]>
-8.55

> <logD_PH13 [MProp:scalar:double]>
-9.67

> <logD_PH14 [MProp:scalar:double]>
-10.63

> <HLB [MProp:scalar:double]>
24.22

> <IUPAC name>
(6R,7R)-7-[(2Z)-2-(2-amino-1,3-thiazol-4-yl)-2-[(carboxymethoxy)imino]acetamido]-3-ethenyl-8-oxo-5-thia-1-azabicyclo[4.2.0]oct-2-ene-2-carboxylic acid

> <SMILES>
NC1=NC(=CS1)C(=N\OCC(O)=O)\C(=O)N[C@H]1[C@H]2SCC(C=C)=C(N2C1=O)C(O)=O

> <InChI>
InChI=1S/C16H15N5O7S2/c1-2-6-4-29-14-10(13(25)21(14)11(6)15(26)27)19-12(24)9(20-28-3-8(22)23)7-5-30-16(17)18-7/h2,5,10,14H,1,3-4H2,(H2,17,18)(H,19,24)(H,22,23)(H,26,27)/b20-9-/t10-,14-/m1/s1

> <InChIKey>
OKBVVJOGVLARMR-QSWIMTSFSA-N

> <Traditional name>
cefixime

> <Common names>
(-)-cefixim; cefixime

> <CAS Registry Numbers(R)>
79350-37-1

$$$$
Cefmetazole
  Mrv2222 01232613222D          

 30 32  0  0  1  0            999 V2000
   -5.2786    2.3111    0.0000 C   0  0  0  0  0  0  0  0  0  0  0  0
   -5.3002    1.4864    0.0000 N   0  0  0  0  0  0  0  0  0  0  0  0
   -4.6457    0.9842    0.0000 C   0  0  0  0  0  0  0  0  0  0  0  0
   -4.9211    0.2065    0.0000 N   0  0  0  0  0  0  0  0  0  0  0  0
   -5.7458    0.2281    0.0000 N   0  0  0  0  0  0  0  0  0  0  0  0
   -5.9801    1.0191    0.0000 N   0  0  0  0  0  0  0  0  0  0  0  0
   -3.8547    1.2185    0.0000 S   0  0  0  0  0  0  0  0  0  0  0  0
   -3.6621    2.0207    0.0000 C   0  0  0  0  0  0  0  0  0  0  0  0
   -2.8711    2.2550    0.0000 C   0  0  0  0  0  0  0  0  0  0  0  0
   -2.6785    3.0572    0.0000 C   0  0  0  0  0  0  0  0  0  0  0  0
   -1.8875    3.2915    0.0000 N   0  0  0  0  0  0  0  0  0  0  0  0
   -1.2890    2.7236    0.0000 C   0  0  1  0  0  0  0  0  0  0  0  0
   -0.7211    3.3221    0.0000 C   0  0  1  0  0  0  0  0  0  0  0  0
   -1.3196    3.8900    0.0000 C   0  0  0  0  0  0  0  0  0  0  0  0
   -1.3412    4.7147    0.0000 O   0  0  0  0  0  0  0  0  0  0  0  0
   -0.0067    2.9096    0.0000 N   0  0  0  0  0  0  0  0  0  0  0  0
    0.7078    3.3221    0.0000 C   0  0  0  0  0  0  0  0  0  0  0  0
    0.7078    4.1471    0.0000 O   0  0  0  0  0  0  0  0  0  0  0  0
    1.4223    2.9096    0.0000 C   0  0  0  0  0  0  0  0  0  0  0  0
    2.1368    3.3221    0.0000 S   0  0  0  0  0  0  0  0  0  0  0  0
    2.8512    2.9096    0.0000 C   0  0  0  0  0  0  0  0  0  0  0  0
    3.5657    3.3221    0.0000 C   0  0  0  0  0  0  0  0  0  0  0  0
    4.2802    3.7346    0.0000 N   0  0  0  0  0  0  0  0  0  0  0  0
   -0.0292    3.7714    0.0000 O   0  0  0  0  0  0  0  0  0  0  0  0
   -0.0724    4.5953    0.0000 C   0  0  0  0  0  0  0  0  0  0  0  0
   -1.4816    1.9214    0.0000 S   0  0  0  0  0  0  0  0  0  0  0  0
   -2.2726    1.6871    0.0000 C   0  0  0  0  0  0  0  0  0  0  0  0
   -3.2769    3.6251    0.0000 C   0  0  0  0  0  0  0  0  0  0  0  0
   -3.0843    4.4273    0.0000 O   0  0  0  0  0  0  0  0  0  0  0  0
   -4.0679    3.3908    0.0000 O   0  0  0  0  0  0  0  0  0  0  0  0
  1  2  1  0  0  0  0
  2  3  1  0  0  0  0
  3  4  2  0  0  0  0
  4  5  1  0  0  0  0
  5  6  2  0  0  0  0
  2  6  1  0  0  0  0
  3  7  1  0  0  0  0
  7  8  1  0  0  0  0
  8  9  1  0  0  0  0
  9 10  2  0  0  0  0
 10 11  1  0  0  0  0
 12 11  1  1  0  0  0
 12 13  1  0  0  0  0
 13 14  1  0  0  0  0
 11 14  1  0  0  0  0
 14 15  2  0  0  0  0
 13 16  1  1  0  0  0
 16 17  1  0  0  0  0
 17 18  2  0  0  0  0
 17 19  1  0  0  0  0
 19 20  1  0  0  0  0
 20 21  1  0  0  0  0
 21 22  1  0  0  0  0
 22 23  3  0  0  0  0
 13 24  1  6  0  0  0
 24 25  1  0  0  0  0
 12 26  1  0  0  0  0
 26 27  1  0  0  0  0
  9 27  1  0  0  0  0
 10 28  1  0  0  0  0
 28 29  2  0  0  0  0
 28 30  1  0  0  0  0
M  END
> <Molar mass [g/mol] [MProp:scalar:double]>
471.53

> <Exact mass [Da] [MProp:scalar:double]>
471.045330197

> <Formula>
C15H17N7O5S3

> <Composition>
C (38.21%), H (3.63%), N (20.79%), O (16.97%), S (20.40%)

> <Lipinski's rule of five [MProp:scalar:boolean]>
true

> <Atom count [MProp:scalar:integer]>
47

> <Heavy atom count [MProp:scalar:integer]>
30

> <Asymmetric atom count [MProp:scalar:integer]>
2

> <Rotatable bond count [MProp:scalar:integer]>
9

> <Ring count [MProp:scalar:integer]>
3

> <Aromatic ring count [MProp:scalar:integer]>
1

> <Hetero ring count [MProp:scalar:integer]>
3

> <FSP3 [MProp:scalar:double]>
0.53

> <Hydrogen bond donor count [MProp:scalar:integer]>
2

> <Hydrogen bond acceptor count [MProp:scalar:integer]>
9

> <Formal charge [MProp:scalar:integer]>
0

> <Topological polar surface area [A^2] [MProp:scalar:double]>
163.33

> <Polarizability [A^3] [MProp:scalar:double]>
42.42

> <Molar refractivity [cm^3/mol] [MProp:scalar:double]>
124.57

> <Van der Waals volume [A^3] [MProp:scalar:double]>
364.08

> <Minimum projection area [A^2] [MProp:scalar:double]>
57.59

> <Maximum projection area [A^2] [MProp:scalar:double]>
107.74

> <Minimum projection radius [A] [MProp:scalar:double]>
5.01

> <Maximum projection radius [A] [MProp:scalar:double]>
9.33

> <Van der Waals surface area [A^2] [MProp:scalar:double]>
552.68

> <Solvent accessible surface area [A^2] [MProp:scalar:double]>
680.56

> <Strongest acidic pKa [MProp:scalar:double]>
3.51

> <Strongest basic pKa [MProp:scalar:double]>
2.18

> <Isoelectric point [MProp:scalar:double]>
2.77

> <Intrinsic solubility [logS] [MProp:scalar:double]>
-4.07

> <Solubility category>
Moderate

> <logP [MProp:scalar:double]>
-0.95

> <logD_PH0 [MProp:scalar:double]>
-4.5

> <logD_PH1 [MProp:scalar:double]>
-2.65

> <logD_PH2 [MProp:scalar:double]>
-1.28

> <logD_PH3 [MProp:scalar:double]>
-0.95

> <logD_PH4 [MProp:scalar:double]>
-1.4

> <logD_PH5 [MProp:scalar:double]>
-2.28

> <logD_PH6 [MProp:scalar:double]>
-3.22

> <logD_PH7 [MProp:scalar:double]>
-3.92

> <logD_PH8 [MProp:scalar:double]>
-4.15

> <logD_PH9 [MProp:scalar:double]>
-4.19

> <logD_PH10 [MProp:scalar:double]>
-4.29

> <logD_PH11 [MProp:scalar:double]>
-4.68

> <logD_PH12 [MProp:scalar:double]>
-5.03

> <logD_PH13 [MProp:scalar:double]>
-5.11

> <logD_PH14 [MProp:scalar:double]>
-5.12

> <HLB [MProp:scalar:double]>
25.21

> <IUPAC name>
(6R,7S)-7-{2-[(cyanomethyl)sulfanyl]acetamido}-7-methoxy-3-{[(1-methyl-1H-1,2,3,4-tetrazol-5-yl)sulfanyl]methyl}-8-oxo-5-thia-1-azabicyclo[4.2.0]oct-2-ene-2-carboxylic acid

> <SMILES>
CO[C@]1(NC(=O)CSCC#N)[C@H]2SCC(CSC3=NN=NN3C)=C(N2C1=O)C(O)=O

> <InChI>
InChI=1S/C15H17N7O5S3/c1-21-14(18-19-20-21)30-6-8-5-29-13-15(27-2,17-9(23)7-28-4-3-16)12(26)22(13)10(8)11(24)25/h13H,4-7H2,1-2H3,(H,17,23)(H,24,25)/t13-,15-/m1/s1

> <InChIKey>
SNBUBQHDYVFSQF-HIFRSBDPSA-N

> <Traditional name>
cefmetazole

> <Common names>
cefmetazole; cefmetazolo; cefmetazolo [inn-spanish]; cefmetazolum

> <CAS Registry Numbers(R)>
56796-20-4

$$$$
Cefotaxime
  Mrv2222 01232613222D          

 30 32  0  0  1  0            999 V2000
    4.8503    0.9760    0.0000 C   0  0  0  0  0  0  0  0  0  0  0  0
    4.1358    0.5635    0.0000 C   0  0  0  0  0  0  0  0  0  0  0  0
    4.1358   -0.2615    0.0000 O   0  0  0  0  0  0  0  0  0  0  0  0
    3.4214    0.9760    0.0000 O   0  0  0  0  0  0  0  0  0  0  0  0
    2.7069    0.5635    0.0000 C   0  0  0  0  0  0  0  0  0  0  0  0
    1.9924    0.9760    0.0000 C   0  0  0  0  0  0  0  0  0  0  0  0
    1.2780    0.5635    0.0000 C   0  0  0  0  0  0  0  0  0  0  0  0
    0.5635    0.9760    0.0000 N   0  0  0  0  0  0  0  0  0  0  0  0
    0.5635    1.8010    0.0000 C   0  0  1  0  0  0  0  0  0  0  0  0
   -0.2615    1.8010    0.0000 C   0  0  1  0  0  0  0  0  0  0  0  0
   -0.2615    0.9760    0.0000 C   0  0  0  0  0  0  0  0  0  0  0  0
   -0.8449    0.3926    0.0000 O   0  0  0  0  0  0  0  0  0  0  0  0
   -0.8449    2.3843    0.0000 N   0  0  0  0  0  0  0  0  0  0  0  0
   -1.6418    2.1708    0.0000 C   0  0  0  0  0  0  0  0  0  0  0  0
   -1.8553    1.3739    0.0000 O   0  0  0  0  0  0  0  0  0  0  0  0
   -2.2251    2.7542    0.0000 C   0  0  0  0  0  0  0  0  0  0  0  0
   -2.0116    3.5511    0.0000 N   0  0  0  0  0  0  0  0  0  0  0  0
   -1.2147    3.7646    0.0000 O   0  0  0  0  0  0  0  0  0  0  0  0
   -1.0012    4.5615    0.0000 C   0  0  0  0  0  0  0  0  0  0  0  0
   -3.0220    2.5407    0.0000 C   0  0  0  0  0  0  0  0  0  0  0  0
   -3.3177    1.7705    0.0000 C   0  0  0  0  0  0  0  0  0  0  0  0
   -4.1415    1.8136    0.0000 S   0  0  0  0  0  0  0  0  0  0  0  0
   -4.3551    2.6105    0.0000 C   0  0  0  0  0  0  0  0  0  0  0  0
   -3.6632    3.0598    0.0000 N   0  0  0  0  0  0  0  0  0  0  0  0
   -5.1253    2.9062    0.0000 N   0  0  0  0  0  0  0  0  0  0  0  0
    1.2780    2.2135    0.0000 S   0  0  0  0  0  0  0  0  0  0  0  0
    1.9924    1.8010    0.0000 C   0  0  0  0  0  0  0  0  0  0  0  0
    1.2780   -0.2615    0.0000 C   0  0  0  0  0  0  0  0  0  0  0  0
    0.5635   -0.6740    0.0000 O   0  0  0  0  0  0  0  0  0  0  0  0
    1.9924   -0.6740    0.0000 O   0  0  0  0  0  0  0  0  0  0  0  0
  1  2  1  0  0  0  0
  2  3  2  0  0  0  0
  2  4  1  0  0  0  0
  4  5  1  0  0  0  0
  5  6  1  0  0  0  0
  6  7  2  0  0  0  0
  7  8  1  0  0  0  0
  9  8  1  1  0  0  0
  9 10  1  0  0  0  0
 10 11  1  0  0  0  0
  8 11  1  0  0  0  0
 11 12  2  0  0  0  0
 10 13  1  1  0  0  0
 13 14  1  0  0  0  0
 14 15  2  0  0  0  0
 14 16  1  0  0  0  0
 16 17  2  0  0  0  0
 17 18  1  0  0  0  0
 18 19  1  0  0  0  0
 16 20  1  0  0  0  0
 20 21  2  0  0  0  0
 21 22  1  0  0  0  0
 22 23  1  0  0  0  0
 23 24  2  0  0  0  0
 20 24  1  0  0  0  0
 23 25  1  0  0  0  0
  9 26  1  0  0  0  0
 26 27  1  0  0  0  0
  6 27  1  0  0  0  0
  7 28  1  0  0  0  0
 28 29  2  0  0  0  0
 28 30  1  0  0  0  0
M  END
> <Molar mass [g/mol] [MProp:scalar:double]>
455.46

> <Exact mass [Da] [MProp:scalar:double]>
455.056940255

> <Formula>
C16H17N5O7S2

> <Composition>
C (42.19%), H (3.76%), N (15.38%), O (24.59%), S (14.08%)

> <Lipinski's rule of five [MProp:scalar:boolean]>
true

> <Atom count [MProp:scalar:integer]>
47

> <Heavy atom count [MProp:scalar:integer]>
30

> <Asymmetric atom count [MProp:scalar:integer]>
2

> <Rotatable bond count [MProp:scalar:integer]>
8

> <Ring count [MProp:scalar:integer]>
3

> <Aromatic ring count [MProp:scalar:integer]>
1

> <Hetero ring count [MProp:scalar:integer]>
3

> <FSP3 [MProp:scalar:double]>
0.37

> <Hydrogen bond donor count [MProp:scalar:integer]>
3

> <Hydrogen bond acceptor count [MProp:scalar:integer]>
9

> <Formal charge [MProp:scalar:integer]>
0

> <Topological polar surface area [A^2] [MProp:scalar:double]>
173.51

> <Polarizability [A^3] [MProp:scalar:double]>
40.08

> <Molar refractivity [cm^3/mol] [MProp:scalar:double]>
105.11

> <Van der Waals volume [A^3] [MProp:scalar:double]>
353.28

> <Minimum projection area [A^2] [MProp:scalar:double]>
62.2

> <Maximum projection area [A^2] [MProp:scalar:double]>
101.03

> <Minimum projection radius [A] [MProp:scalar:double]>
5.02

> <Maximum projection radius [A] [MProp:scalar:double]>
8.55

> <Van der Waals surface area [A^2] [MProp:scalar:double]>
527.37

> <Solvent accessible surface area [A^2] [MProp:scalar:double]>
654.92

> <Strongest acidic pKa [MProp:scalar:double]>
2.92

> <Strongest basic pKa [MProp:scalar:double]>
3.67

> <Isoelectric point [MProp:scalar:double]>
3.27

> <Intrinsic solubility [logS] [MProp:scalar:double]>
-4.07

> <Solubility category>
Moderate

> <logP [MProp:scalar:double]>
-1.45

> <logD_PH0 [MProp:scalar:double]>
-4.35

> <logD_PH1 [MProp:scalar:double]>
-2.94

> <logD_PH2 [MProp:scalar:double]>
-2.04

> <logD_PH3 [MProp:scalar:double]>
-1.45

> <logD_PH4 [MProp:scalar:double]>
-1.67

> <logD_PH5 [MProp:scalar:double]>
-2.51

> <logD_PH6 [MProp:scalar:double]>
-3.43

> <logD_PH7 [MProp:scalar:double]>
-4.06

> <logD_PH8 [MProp:scalar:double]>
-4.23

> <logD_PH9 [MProp:scalar:double]>
-4.26

> <logD_PH10 [MProp:scalar:double]>
-4.29

> <logD_PH11 [MProp:scalar:double]>
-4.55

> <logD_PH12 [MProp:scalar:double]>
-5.49

> <logD_PH13 [MProp:scalar:double]>
-6.6

> <logD_PH14 [MProp:scalar:double]>
-7.56

> <HLB [MProp:scalar:double]>
24.04

> <IUPAC name>
(6R,7R)-3-[(acetyloxy)methyl]-7-[(2Z)-2-(2-amino-1,3-thiazol-4-yl)-2-(methoxyimino)acetamido]-8-oxo-5-thia-1-azabicyclo[4.2.0]oct-2-ene-2-carboxylic acid

> <SMILES>
CO\N=C(/C(=O)N[C@H]1[C@H]2SCC(COC(C)=O)=C(N2C1=O)C(O)=O)C1=CSC(N)=N1

> <InChI>
InChI=1S/C16H17N5O7S2/c1-6(22)28-3-7-4-29-14-10(13(24)21(14)11(7)15(25)26)19-12(23)9(20-27-2)8-5-30-16(17)18-8/h5,10,14H,3-4H2,1-2H3,(H2,17,18)(H,19,23)(H,25,26)/b20-9-/t10-,14-/m1/s1

> <InChIKey>
GPRBEKHLDVQUJE-QSWIMTSFSA-N

> <Traditional name>
cefotaxime

> <Common names>
N/A

> <CAS Registry Numbers(R)>
63527-52-6, 60846-21-1, 1056874-43-1

$$$$
Cefotetan
  Mrv2222 01232613222D          

 36 39  0  0  1  0            999 V2000
    3.6090   -0.8090    0.0000 C   0  0  0  0  0  0  0  0  0  0  0  0
    4.2221   -0.2570    0.0000 N   0  0  0  0  0  0  0  0  0  0  0  0
    4.1358    0.5635    0.0000 C   0  0  0  0  0  0  0  0  0  0  0  0
    4.8895    0.8990    0.0000 N   0  0  0  0  0  0  0  0  0  0  0  0
    5.4415    0.2859    0.0000 N   0  0  0  0  0  0  0  0  0  0  0  0
    5.0290   -0.4285    0.0000 N   0  0  0  0  0  0  0  0  0  0  0  0
    3.4214    0.9760    0.0000 S   0  0  0  0  0  0  0  0  0  0  0  0
    2.7069    0.5635    0.0000 C   0  0  0  0  0  0  0  0  0  0  0  0
    1.9924    0.9760    0.0000 C   0  0  0  0  0  0  0  0  0  0  0  0
    1.2780    0.5635    0.0000 C   0  0  0  0  0  0  0  0  0  0  0  0
    0.5635    0.9760    0.0000 N   0  0  0  0  0  0  0  0  0  0  0  0
    0.5635    1.8010    0.0000 C   0  0  1  0  0  0  0  0  0  0  0  0
   -0.2615    1.8010    0.0000 C   0  0  1  0  0  0  0  0  0  0  0  0
   -0.2615    0.9760    0.0000 C   0  0  0  0  0  0  0  0  0  0  0  0
   -0.8449    0.3926    0.0000 O   0  0  0  0  0  0  0  0  0  0  0  0
   -0.4541    2.6032    0.0000 N   0  0  0  0  0  0  0  0  0  0  0  0
   -1.2451    2.8375    0.0000 C   0  0  0  0  0  0  0  0  0  0  0  0
   -1.8436    2.2696    0.0000 O   0  0  0  0  0  0  0  0  0  0  0  0
   -1.4377    3.6397    0.0000 C   0  0  0  0  0  0  0  0  0  0  0  0
   -2.1412    4.0708    0.0000 S   0  0  0  0  0  0  0  0  0  0  0  0
   -1.7101    4.7742    0.0000 C   0  0  0  0  0  0  0  0  0  0  0  0
   -1.9027    5.5764    0.0000 C   0  0  0  0  0  0  0  0  0  0  0  0
   -2.6937    5.8107    0.0000 C   0  0  0  0  0  0  0  0  0  0  0  0
   -3.2921    5.2428    0.0000 O   0  0  0  0  0  0  0  0  0  0  0  0
   -2.8863    6.6129    0.0000 N   0  0  0  0  0  0  0  0  0  0  0  0
   -1.3043    6.1443    0.0000 C   0  0  0  0  0  0  0  0  0  0  0  0
   -1.4968    6.9465    0.0000 O   0  0  0  0  0  0  0  0  0  0  0  0
   -0.5132    5.9100    0.0000 O   0  0  0  0  0  0  0  0  0  0  0  0
   -1.0067    4.3431    0.0000 S   0  0  0  0  0  0  0  0  0  0  0  0
   -1.0637    1.9936    0.0000 O   0  0  0  0  0  0  0  0  0  0  0  0
   -1.6316    1.3951    0.0000 C   0  0  0  0  0  0  0  0  0  0  0  0
    1.2780    2.2135    0.0000 S   0  0  0  0  0  0  0  0  0  0  0  0
    1.9924    1.8010    0.0000 C   0  0  0  0  0  0  0  0  0  0  0  0
    1.2780   -0.2615    0.0000 C   0  0  0  0  0  0  0  0  0  0  0  0
    0.5635   -0.6740    0.0000 O   0  0  0  0  0  0  0  0  0  0  0  0
    1.9924   -0.6740    0.0000 O   0  0  0  0  0  0  0  0  0  0  0  0
  1  2  1  0  0  0  0
  2  3  1  0  0  0  0
  3  4  2  0  0  0  0
  4  5  1  0  0  0  0
  5  6  2  0  0  0  0
  2  6  1  0  0  0  0
  3  7  1  0  0  0  0
  7  8  1  0  0  0  0
  8  9  1  0  0  0  0
  9 10  2  0  0  0  0
 10 11  1  0  0  0  0
 12 11  1  1  0  0  0
 12 13  1  0  0  0  0
 13 14  1  0  0  0  0
 11 14  1  0  0  0  0
 14 15  2  0  0  0  0
 13 16  1  1  0  0  0
 16 17  1  0  0  0  0
 17 18  2  0  0  0  0
 17 19  1  0  0  0  0
 19 20  1  0  0  0  0
 21 20  1  4  0  0  0
 21 22  2  0  0  0  0
 22 23  1  0  0  0  0
 23 24  2  0  0  0  0
 23 25  1  0  0  0  0
 22 26  1  0  0  0  0
 26 27  2  0  0  0  0
 26 28  1  0  0  0  0
 21 29  1  0  0  0  0
 19 29  1  0  0  0  0
 13 30  1  6  0  0  0
 30 31  1  0  0  0  0
 12 32  1  0  0  0  0
 32 33  1  0  0  0  0
  9 33  1  0  0  0  0
 10 34  1  0  0  0  0
 34 35  2  0  0  0  0
 34 36  1  0  0  0  0
M  END
> <Molar mass [g/mol] [MProp:scalar:double]>
575.6

> <Exact mass [Da] [MProp:scalar:double]>
575.002145231

> <Formula>
C17H17N7O8S4

> <Composition>
C (35.47%), H (2.98%), N (17.03%), O (22.24%), S (22.28%)

> <Lipinski's rule of five [MProp:scalar:boolean]>
false

> <Atom count [MProp:scalar:integer]>
53

> <Heavy atom count [MProp:scalar:integer]>
36

> <Asymmetric atom count [MProp:scalar:integer]>
3

> <Rotatable bond count [MProp:scalar:integer]>
9

> <Ring count [MProp:scalar:integer]>
4

> <Aromatic ring count [MProp:scalar:integer]>
1

> <Hetero ring count [MProp:scalar:integer]>
4

> <FSP3 [MProp:scalar:double]>
0.41

> <Hydrogen bond donor count [MProp:scalar:integer]>
4

> <Hydrogen bond acceptor count [MProp:scalar:integer]>
11

> <Formal charge [MProp:scalar:integer]>
0

> <Topological polar surface area [A^2] [MProp:scalar:double]>
219.93

> <Polarizability [A^3] [MProp:scalar:double]>
50.3

> <Molar refractivity [cm^3/mol] [MProp:scalar:double]>
153.55

> <Van der Waals volume [A^3] [MProp:scalar:double]>
422.94

> <Minimum projection area [A^2] [MProp:scalar:double]>
77.77

> <Maximum projection area [A^2] [MProp:scalar:double]>
109.84

> <Minimum projection radius [A] [MProp:scalar:double]>
6.41

> <Maximum projection radius [A] [MProp:scalar:double]>
8.33

> <Van der Waals surface area [A^2] [MProp:scalar:double]>
609.62

> <Solvent accessible surface area [A^2] [MProp:scalar:double]>
713.63

> <Strongest acidic pKa [MProp:scalar:double]>
3.35

> <Strongest basic pKa [MProp:scalar:double]>
2.08

> <Isoelectric point [MProp:scalar:double]>
2.61

> <Intrinsic solubility [logS] [MProp:scalar:double]>
-4.99

> <Solubility category>
Low

> <logP [MProp:scalar:double]>
-0.74

> <logD_PH0 [MProp:scalar:double]>
-4.22

> <logD_PH1 [MProp:scalar:double]>
-2.18

> <logD_PH2 [MProp:scalar:double]>
-0.94

> <logD_PH3 [MProp:scalar:double]>
-0.74

> <logD_PH4 [MProp:scalar:double]>
-1.49

> <logD_PH5 [MProp:scalar:double]>
-3.13

> <logD_PH6 [MProp:scalar:double]>
-5.02

> <logD_PH7 [MProp:scalar:double]>
-6.58

> <logD_PH8 [MProp:scalar:double]>
-7.29

> <logD_PH9 [MProp:scalar:double]>
-7.43

> <logD_PH10 [MProp:scalar:double]>
-7.53

> <logD_PH11 [MProp:scalar:double]>
-7.89

> <logD_PH12 [MProp:scalar:double]>
-8.27

> <logD_PH13 [MProp:scalar:double]>
-8.36

> <logD_PH14 [MProp:scalar:double]>
-8.35

> <HLB [MProp:scalar:double]>
33.04

> <IUPAC name>
(6R,7S)-7-{4-[carbamoyl(carboxy)methylidene]-1,3-dithietane-2-amido}-7-methoxy-3-{[(1-methyl-1H-1,2,3,4-tetrazol-5-yl)sulfanyl]methyl}-8-oxo-5-thia-1-azabicyclo[4.2.0]oct-2-ene-2-carboxylic acid

> <SMILES>
CO[C@]1(NC(=O)C2SC(S2)=C(C(N)=O)C(O)=O)[C@H]2SCC(CSC3=NN=NN3C)=C(N2C1=O)C(O)=O

> <InChI>
InChI=1S/C17H17N7O8S4/c1-23-16(20-21-22-23)34-4-5-3-33-15-17(32-2,14(31)24(15)7(5)11(29)30)19-9(26)13-35-12(36-13)6(8(18)25)10(27)28/h13,15H,3-4H2,1-2H3,(H2,18,25)(H,19,26)(H,27,28)(H,29,30)/t13?,15-,17-/m1/s1

> <InChIKey>
SRZNHPXWXCNNDU-RHBCBLIFSA-N

> <Traditional name>
cefotetan

> <Common names>
cefotetan

> <CAS Registry Numbers(R)>
69712-56-7

$$$$
Cefoxitin
  Mrv2222 01232613222D          

 28 30  0  0  1  0            999 V2000
   -1.4990   -0.2615    0.0000 C   0  0  0  0  0  0  0  0  0  0  0  0
   -1.0865   -0.9760    0.0000 O   0  0  0  0  0  0  0  0  0  0  0  0
   -0.2615   -0.9760    0.0000 C   0  0  2  0  0  0  0  0  0  0  0  0
    0.5635   -0.9760    0.0000 C   0  0  2  0  0  0  0  0  0  0  0  0
    0.5635   -0.1510    0.0000 N   0  0  0  0  0  0  0  0  0  0  0  0
   -0.2615   -0.1510    0.0000 C   0  0  0  0  0  0  0  0  0  0  0  0
   -0.8449    0.4324    0.0000 O   0  0  0  0  0  0  0  0  0  0  0  0
    1.2780    0.2615    0.0000 C   0  0  0  0  0  0  0  0  0  0  0  0
    1.9924   -0.1510    0.0000 C   0  0  0  0  0  0  0  0  0  0  0  0
    1.9924   -0.9760    0.0000 C   0  0  0  0  0  0  0  0  0  0  0  0
    1.2780   -1.3885    0.0000 S   0  0  0  0  0  0  0  0  0  0  0  0
    2.7069    0.2615    0.0000 C   0  0  0  0  0  0  0  0  0  0  0  0
    3.4214   -0.1510    0.0000 O   0  0  0  0  0  0  0  0  0  0  0  0
    4.1358    0.2615    0.0000 C   0  0  0  0  0  0  0  0  0  0  0  0
    4.8503   -0.1510    0.0000 O   0  0  0  0  0  0  0  0  0  0  0  0
    4.1358    1.0865    0.0000 N   0  0  0  0  0  0  0  0  0  0  0  0
    1.2780    1.0865    0.0000 C   0  0  0  0  0  0  0  0  0  0  0  0
    1.9924    1.4990    0.0000 O   0  0  0  0  0  0  0  0  0  0  0  0
    0.5635    1.4990    0.0000 O   0  0  0  0  0  0  0  0  0  0  0  0
   -0.2615   -1.8010    0.0000 N   0  0  0  0  0  0  0  0  0  0  0  0
   -0.9760   -2.2135    0.0000 C   0  0  0  0  0  0  0  0  0  0  0  0
   -1.6905   -1.8010    0.0000 O   0  0  0  0  0  0  0  0  0  0  0  0
   -0.9760   -3.0385    0.0000 C   0  0  0  0  0  0  0  0  0  0  0  0
   -1.6905   -3.4510    0.0000 C   0  0  0  0  0  0  0  0  0  0  0  0
   -1.7767   -4.2715    0.0000 C   0  0  0  0  0  0  0  0  0  0  0  0
   -2.5837   -4.4430    0.0000 C   0  0  0  0  0  0  0  0  0  0  0  0
   -2.9962   -3.7285    0.0000 C   0  0  0  0  0  0  0  0  0  0  0  0
   -2.4441   -3.1154    0.0000 S   0  0  0  0  0  0  0  0  0  0  0  0
  1  2  1  0  0  0  0
  3  2  1  1  0  0  0
  3  4  1  0  0  0  0
  4  5  1  6  0  0  0
  5  6  1  0  0  0  0
  3  6  1  0  0  0  0
  6  7  2  0  0  0  0
  5  8  1  0  0  0  0
  8  9  2  0  0  0  0
  9 10  1  0  0  0  0
 10 11  1  0  0  0  0
  4 11  1  0  0  0  0
  9 12  1  0  0  0  0
 12 13  1  0  0  0  0
 13 14  1  0  0  0  0
 14 15  2  0  0  0  0
 14 16  1  0  0  0  0
  8 17  1  0  0  0  0
 17 18  2  0  0  0  0
 17 19  1  0  0  0  0
  3 20  1  6  0  0  0
 20 21  1  0  0  0  0
 21 22  2  0  0  0  0
 21 23  1  0  0  0  0
 23 24  1  0  0  0  0
 24 25  2  0  0  0  0
 25 26  1  0  0  0  0
 26 27  2  0  0  0  0
 27 28  1  0  0  0  0
 24 28  1  0  0  0  0
M  END
> <Molar mass [g/mol] [MProp:scalar:double]>
427.45

> <Exact mass [Da] [MProp:scalar:double]>
427.050792247

> <Formula>
C16H17N3O7S2

> <Composition>
C (44.96%), H (4.01%), N (9.83%), O (26.20%), S (15.00%)

> <Lipinski's rule of five [MProp:scalar:boolean]>
true

> <Atom count [MProp:scalar:integer]>
45

> <Heavy atom count [MProp:scalar:integer]>
28

> <Asymmetric atom count [MProp:scalar:integer]>
2

> <Rotatable bond count [MProp:scalar:integer]>
8

> <Ring count [MProp:scalar:integer]>
3

> <Aromatic ring count [MProp:scalar:integer]>
1

> <Hetero ring count [MProp:scalar:integer]>
3

> <FSP3 [MProp:scalar:double]>
0.37

> <Hydrogen bond donor count [MProp:scalar:integer]>
3

> <Hydrogen bond acceptor count [MProp:scalar:integer]>
6

> <Formal charge [MProp:scalar:integer]>
0

> <Topological polar surface area [A^2] [MProp:scalar:double]>
148.26

> <Polarizability [A^3] [MProp:scalar:double]>
38.31

> <Molar refractivity [cm^3/mol] [MProp:scalar:double]>
98.76

> <Van der Waals volume [A^3] [MProp:scalar:double]>
335.61

> <Minimum projection area [A^2] [MProp:scalar:double]>
57.37

> <Maximum projection area [A^2] [MProp:scalar:double]>
98.2

> <Minimum projection radius [A] [MProp:scalar:double]>
5.46

> <Maximum projection radius [A] [MProp:scalar:double]>
7.94

> <Van der Waals surface area [A^2] [MProp:scalar:double]>
511.87

> <Solvent accessible surface area [A^2] [MProp:scalar:double]>
596.04

> <Strongest acidic pKa [MProp:scalar:double]>
3.68

> <Strongest basic pKa [MProp:scalar:double]>
2.3

> <Isoelectric point [MProp:scalar:double]>
3.01

> <Intrinsic solubility [logS] [MProp:scalar:double]>
-3.74

> <Solubility category>
High

> <logP [MProp:scalar:double]>
0.05

> <logD_PH0 [MProp:scalar:double]>
-3.74

> <logD_PH1 [MProp:scalar:double]>
-1.88

> <logD_PH2 [MProp:scalar:double]>
-0.41

> <logD_PH3 [MProp:scalar:double]>
0.05

> <logD_PH4 [MProp:scalar:double]>
-0.3

> <logD_PH5 [MProp:scalar:double]>
-1.14

> <logD_PH6 [MProp:scalar:double]>
-2.09

> <logD_PH7 [MProp:scalar:double]>
-2.88

> <logD_PH8 [MProp:scalar:double]>
-3.19

> <logD_PH9 [MProp:scalar:double]>
-3.24

> <logD_PH10 [MProp:scalar:double]>
-3.28

> <logD_PH11 [MProp:scalar:double]>
-3.51

> <logD_PH12 [MProp:scalar:double]>
-3.96

> <logD_PH13 [MProp:scalar:double]>
-4.15

> <logD_PH14 [MProp:scalar:double]>
-4.11

> <HLB [MProp:scalar:double]>
23.92

> <IUPAC name>
(6R,7S)-3-[(carbamoyloxy)methyl]-7-methoxy-8-oxo-7-[2-(thiophen-2-yl)acetamido]-5-thia-1-azabicyclo[4.2.0]oct-2-ene-2-carboxylic acid

> <SMILES>
CO[C@]1(NC(=O)CC2=CC=CS2)[C@H]2SCC(COC(N)=O)=C(N2C1=O)C(O)=O

> <InChI>
InChI=1S/C16H17N3O7S2/c1-25-16(18-10(20)5-9-3-2-4-27-9)13(23)19-11(12(21)22)8(6-26-15(17)24)7-28-14(16)19/h2-4,14H,5-7H2,1H3,(H2,17,24)(H,18,20)(H,21,22)/t14-,16-/m1/s1

> <InChIKey>
WZOZEZRFJCJXNZ-ZBFHGGJFSA-N

> <Traditional name>
cefoxitin

> <Common names>
cefoxitin

> <CAS Registry Numbers(R)>
35607-66-0, 73356-24-8

$$$$
Cefpodoxime
  Mrv2222 01232613222D          

 28 30  0  0  1  0            999 V2000
    4.1358    0.5635    0.0000 C   0  0  0  0  0  0  0  0  0  0  0  0
    3.4214    0.9760    0.0000 O   0  0  0  0  0  0  0  0  0  0  0  0
    2.7069    0.5635    0.0000 C   0  0  0  0  0  0  0  0  0  0  0  0
    1.9924    0.9760    0.0000 C   0  0  0  0  0  0  0  0  0  0  0  0
    1.2780    0.5635    0.0000 C   0  0  0  0  0  0  0  0  0  0  0  0
    0.5635    0.9760    0.0000 N   0  0  0  0  0  0  0  0  0  0  0  0
    0.5635    1.8010    0.0000 C   0  0  1  0  0  0  0  0  0  0  0  0
   -0.2615    1.8010    0.0000 C   0  0  1  0  0  0  0  0  0  0  0  0
   -0.2615    0.9760    0.0000 C   0  0  0  0  0  0  0  0  0  0  0  0
   -0.8449    0.3926    0.0000 O   0  0  0  0  0  0  0  0  0  0  0  0
   -0.8449    2.3843    0.0000 N   0  0  0  0  0  0  0  0  0  0  0  0
   -1.6418    2.1708    0.0000 C   0  0  0  0  0  0  0  0  0  0  0  0
   -1.8553    1.3739    0.0000 O   0  0  0  0  0  0  0  0  0  0  0  0
   -2.2251    2.7542    0.0000 C   0  0  0  0  0  0  0  0  0  0  0  0
   -2.0116    3.5511    0.0000 N   0  0  0  0  0  0  0  0  0  0  0  0
   -1.2147    3.7646    0.0000 O   0  0  0  0  0  0  0  0  0  0  0  0
   -1.0012    4.5615    0.0000 C   0  0  0  0  0  0  0  0  0  0  0  0
   -3.0220    2.5407    0.0000 C   0  0  0  0  0  0  0  0  0  0  0  0
   -3.3177    1.7705    0.0000 C   0  0  0  0  0  0  0  0  0  0  0  0
   -4.1415    1.8136    0.0000 S   0  0  0  0  0  0  0  0  0  0  0  0
   -4.3551    2.6105    0.0000 C   0  0  0  0  0  0  0  0  0  0  0  0
   -3.6632    3.0598    0.0000 N   0  0  0  0  0  0  0  0  0  0  0  0
   -5.1253    2.9062    0.0000 N   0  0  0  0  0  0  0  0  0  0  0  0
    1.2780    2.2135    0.0000 S   0  0  0  0  0  0  0  0  0  0  0  0
    1.9924    1.8010    0.0000 C   0  0  0  0  0  0  0  0  0  0  0  0
    1.2780   -0.2615    0.0000 C   0  0  0  0  0  0  0  0  0  0  0  0
    0.5635   -0.6740    0.0000 O   0  0  0  0  0  0  0  0  0  0  0  0
    1.9924   -0.6740    0.0000 O   0  0  0  0  0  0  0  0  0  0  0  0
  1  2  1  0  0  0  0
  2  3  1  0  0  0  0
  3  4  1  0  0  0  0
  4  5  2  0  0  0  0
  5  6  1  0  0  0  0
  7  6  1  1  0  0  0
  7  8  1  0  0  0  0
  8  9  1  0  0  0  0
  6  9  1  0  0  0  0
  9 10  2  0  0  0  0
  8 11  1  1  0  0  0
 11 12  1  0  0  0  0
 12 13  2  0  0  0  0
 12 14  1  0  0  0  0
 14 15  2  0  0  0  0
 15 16  1  0  0  0  0
 16 17  1  0  0  0  0
 14 18  1  0  0  0  0
 18 19  2  0  0  0  0
 19 20  1  0  0  0  0
 20 21  1  0  0  0  0
 21 22  2  0  0  0  0
 18 22  1  0  0  0  0
 21 23  1  0  0  0  0
  7 24  1  0  0  0  0
 24 25  1  0  0  0  0
  4 25  1  0  0  0  0
  5 26  1  0  0  0  0
 26 27  2  0  0  0  0
 26 28  1  0  0  0  0
M  END
> <Molar mass [g/mol] [MProp:scalar:double]>
427.45

> <Exact mass [Da] [MProp:scalar:double]>
427.062025635

> <Formula>
C15H17N5O6S2

> <Composition>
C (42.15%), H (4.01%), N (16.38%), O (22.46%), S (15.00%)

> <Lipinski's rule of five [MProp:scalar:boolean]>
true

> <Atom count [MProp:scalar:integer]>
45

> <Heavy atom count [MProp:scalar:integer]>
28

> <Asymmetric atom count [MProp:scalar:integer]>
2

> <Rotatable bond count [MProp:scalar:integer]>
7

> <Ring count [MProp:scalar:integer]>
3

> <Aromatic ring count [MProp:scalar:integer]>
1

> <Hetero ring count [MProp:scalar:integer]>
3

> <FSP3 [MProp:scalar:double]>
0.4

> <Hydrogen bond donor count [MProp:scalar:integer]>
3

> <Hydrogen bond acceptor count [MProp:scalar:integer]>
9

> <Formal charge [MProp:scalar:integer]>
0

> <Topological polar surface area [A^2] [MProp:scalar:double]>
156.44

> <Polarizability [A^3] [MProp:scalar:double]>
38.1

> <Molar refractivity [cm^3/mol] [MProp:scalar:double]>
100.71

> <Van der Waals volume [A^3] [MProp:scalar:double]>
334.2

> <Minimum projection area [A^2] [MProp:scalar:double]>
51.99

> <Maximum projection area [A^2] [MProp:scalar:double]>
104.99

> <Minimum projection radius [A] [MProp:scalar:double]>
4.86

> <Maximum projection radius [A] [MProp:scalar:double]>
8.35

> <Van der Waals surface area [A^2] [MProp:scalar:double]>
500.54

> <Solvent accessible surface area [A^2] [MProp:scalar:double]>
626.13

> <Strongest acidic pKa [MProp:scalar:double]>
2.93

> <Strongest basic pKa [MProp:scalar:double]>
3.69

> <Isoelectric point [MProp:scalar:double]>
3.29

> <Intrinsic solubility [logS] [MProp:scalar:double]>
-3.83

> <Solubility category>
High

> <logP [MProp:scalar:double]>
-1.23

> <logD_PH0 [MProp:scalar:double]>
-4.14

> <logD_PH1 [MProp:scalar:double]>
-2.74

> <logD_PH2 [MProp:scalar:double]>
-1.84

> <logD_PH3 [MProp:scalar:double]>
-1.23

> <logD_PH4 [MProp:scalar:double]>
-1.43

> <logD_PH5 [MProp:scalar:double]>
-2.26

> <logD_PH6 [MProp:scalar:double]>
-3.19

> <logD_PH7 [MProp:scalar:double]>
-3.84

> <logD_PH8 [MProp:scalar:double]>
-4.03

> <logD_PH9 [MProp:scalar:double]>
-4.06

> <logD_PH10 [MProp:scalar:double]>
-4.09

> <logD_PH11 [MProp:scalar:double]>
-4.33

> <logD_PH12 [MProp:scalar:double]>
-5.26

> <logD_PH13 [MProp:scalar:double]>
-6.4

> <logD_PH14 [MProp:scalar:double]>
-7.36

> <HLB [MProp:scalar:double]>
23.62

> <IUPAC name>
(6R,7R)-7-[(2Z)-2-(2-amino-1,3-thiazol-4-yl)-2-(methoxyimino)acetamido]-3-(methoxymethyl)-8-oxo-5-thia-1-azabicyclo[4.2.0]oct-2-ene-2-carboxylic acid

> <SMILES>
COCC1=C(N2[C@H](SC1)[C@H](NC(=O)C(=N/OC)\C1=CSC(N)=N1)C2=O)C(O)=O

> <InChI>
InChI=1S/C15H17N5O6S2/c1-25-3-6-4-27-13-9(12(22)20(13)10(6)14(23)24)18-11(21)8(19-26-2)7-5-28-15(16)17-7/h5,9,13H,3-4H2,1-2H3,(H2,16,17)(H,18,21)(H,23,24)/b19-8-/t9-,13-/m1/s1

> <InChIKey>
WYUSVOMTXWRGEK-HBWVYFAYSA-N

> <Traditional name>
cefpodoxime

> <Common names>
banan; cefpodoxima; cefpodoxime; cefpodoxime (product); cefpodoxime (substance); cefpodoxime preparation; cefpodoxime sodium salt; cefpodoximum; cpdx-PR; doxef; orelox; otreon; podomexef; vantin

> <CAS Registry Numbers(R)>
80210-62-4, 82619-04-3

$$$$
Cefprozil
  Mrv2222 01232613222D          

 27 29  0  0  1  0            999 V2000
    4.1358    0.5635    0.0000 C   0  0  0  0  0  0  0  0  0  0  0  0
    3.4214    0.9760    0.0000 C   0  0  0  0  0  0  0  0  0  0  0  0
    2.7069    0.5635    0.0000 C   0  0  0  0  0  0  0  0  0  0  0  0
    1.9924    0.9760    0.0000 C   0  0  0  0  0  0  0  0  0  0  0  0
    1.2780    0.5635    0.0000 C   0  0  0  0  0  0  0  0  0  0  0  0
    0.5635    0.9760    0.0000 N   0  0  0  0  0  0  0  0  0  0  0  0
    0.5635    1.8010    0.0000 C   0  0  1  0  0  0  0  0  0  0  0  0
   -0.2615    1.8010    0.0000 C   0  0  1  0  0  0  0  0  0  0  0  0
   -0.2615    0.9760    0.0000 C   0  0  0  0  0  0  0  0  0  0  0  0
   -0.8449    0.3926    0.0000 O   0  0  0  0  0  0  0  0  0  0  0  0
   -0.8449    2.3843    0.0000 N   0  0  0  0  0  0  0  0  0  0  0  0
   -0.6314    3.1812    0.0000 C   0  0  0  0  0  0  0  0  0  0  0  0
    0.1655    3.3948    0.0000 O   0  0  0  0  0  0  0  0  0  0  0  0
   -1.2147    3.7646    0.0000 C   0  0  1  0  0  0  0  0  0  0  0  0
   -1.0012    4.5615    0.0000 C   0  0  0  0  0  0  0  0  0  0  0  0
   -1.5846    5.1449    0.0000 C   0  0  0  0  0  0  0  0  0  0  0  0
   -1.3710    5.9417    0.0000 C   0  0  0  0  0  0  0  0  0  0  0  0
   -0.5741    6.1553    0.0000 C   0  0  0  0  0  0  0  0  0  0  0  0
    0.0092    5.5719    0.0000 C   0  0  0  0  0  0  0  0  0  0  0  0
   -0.2043    4.7750    0.0000 C   0  0  0  0  0  0  0  0  0  0  0  0
   -0.3606    6.9522    0.0000 O   0  0  0  0  0  0  0  0  0  0  0  0
   -2.0116    3.5511    0.0000 N   0  0  0  0  0  0  0  0  0  0  0  0
    1.2780    2.2135    0.0000 S   0  0  0  0  0  0  0  0  0  0  0  0
    1.9924    1.8010    0.0000 C   0  0  0  0  0  0  0  0  0  0  0  0
    1.2780   -0.2615    0.0000 C   0  0  0  0  0  0  0  0  0  0  0  0
    0.5635   -0.6740    0.0000 O   0  0  0  0  0  0  0  0  0  0  0  0
    1.9924   -0.6740    0.0000 O   0  0  0  0  0  0  0  0  0  0  0  0
  2  1  1  4  0  0  0
  2  3  2  0  0  0  0
  3  4  1  0  0  0  0
  4  5  2  0  0  0  0
  5  6  1  0  0  0  0
  7  6  1  1  0  0  0
  7  8  1  0  0  0  0
  8  9  1  0  0  0  0
  6  9  1  0  0  0  0
  9 10  2  0  0  0  0
  8 11  1  1  0  0  0
 11 12  1  0  0  0  0
 12 13  2  0  0  0  0
 14 12  1  0  0  0  0
 14 15  1  0  0  0  0
 15 16  2  0  0  0  0
 16 17  1  0  0  0  0
 17 18  2  0  0  0  0
 18 19  1  0  0  0  0
 19 20  2  0  0  0  0
 15 20  1  0  0  0  0
 18 21  1  0  0  0  0
 14 22  1  6  0  0  0
  7 23  1  0  0  0  0
 23 24  1  0  0  0  0
  4 24  1  0  0  0  0
  5 25  1  0  0  0  0
 25 26  2  0  0  0  0
 25 27  1  0  0  0  0
M  END
> <Molar mass [g/mol] [MProp:scalar:double]>
389.43

> <Exact mass [Da] [MProp:scalar:double]>
389.104541898

> <Formula>
C18H19N3O5S

> <Composition>
C (55.52%), H (4.92%), N (10.79%), O (20.54%), S (8.23%)

> <Lipinski's rule of five [MProp:scalar:boolean]>
true

> <Atom count [MProp:scalar:integer]>
46

> <Heavy atom count [MProp:scalar:integer]>
27

> <Asymmetric atom count [MProp:scalar:integer]>
3

> <Rotatable bond count [MProp:scalar:integer]>
5

> <Ring count [MProp:scalar:integer]>
3

> <Aromatic ring count [MProp:scalar:integer]>
1

> <Hetero ring count [MProp:scalar:integer]>
2

> <FSP3 [MProp:scalar:double]>
0.28

> <Hydrogen bond donor count [MProp:scalar:integer]>
4

> <Hydrogen bond acceptor count [MProp:scalar:integer]>
6

> <Formal charge [MProp:scalar:integer]>
0

> <Topological polar surface area [A^2] [MProp:scalar:double]>
132.96

> <Polarizability [A^3] [MProp:scalar:double]>
38.68

> <Molar refractivity [cm^3/mol] [MProp:scalar:double]>
101.27

> <Van der Waals volume [A^3] [MProp:scalar:double]>
325.48

> <Minimum projection area [A^2] [MProp:scalar:double]>
46.35

> <Maximum projection area [A^2] [MProp:scalar:double]>
99.11

> <Minimum projection radius [A] [MProp:scalar:double]>
4.28

> <Maximum projection radius [A] [MProp:scalar:double]>
8.7

> <Van der Waals surface area [A^2] [MProp:scalar:double]>
476.23

> <Solvent accessible surface area [A^2] [MProp:scalar:double]>
545.45

> <Strongest acidic pKa [MProp:scalar:double]>
3.56

> <Strongest basic pKa [MProp:scalar:double]>
7.22

> <Isoelectric point [MProp:scalar:double]>
5.53

> <Intrinsic solubility [logS] [MProp:scalar:double]>
-4.49

> <Solubility category>
Moderate

> <logP [MProp:scalar:double]>
-1.92

> <logD_PH0 [MProp:scalar:double]>
-5.83

> <logD_PH1 [MProp:scalar:double]>
-4.04

> <logD_PH2 [MProp:scalar:double]>
-2.92

> <logD_PH3 [MProp:scalar:double]>
-2.4

> <logD_PH4 [MProp:scalar:double]>
-2.01

> <logD_PH5 [MProp:scalar:double]>
-1.92

> <logD_PH6 [MProp:scalar:double]>
-1.93

> <logD_PH7 [MProp:scalar:double]>
-2.09

> <logD_PH8 [MProp:scalar:double]>
-2.64

> <logD_PH9 [MProp:scalar:double]>
-3.2

> <logD_PH10 [MProp:scalar:double]>
-3.8

> <logD_PH11 [MProp:scalar:double]>
-4.67

> <logD_PH12 [MProp:scalar:double]>
-5.51

> <logD_PH13 [MProp:scalar:double]>
-6.52

> <logD_PH14 [MProp:scalar:double]>
-7.61

> <HLB [MProp:scalar:double]>
27.46

> <IUPAC name>
(6R,7R)-7-[(2R)-2-amino-2-(4-hydroxyphenyl)acetamido]-8-oxo-3-(prop-1-en-1-yl)-5-thia-1-azabicyclo[4.2.0]oct-2-ene-2-carboxylic acid

> <SMILES>
CC=CC1=C(N2[C@H](SC1)[C@H](NC(=O)[C@H](N)C1=CC=C(O)C=C1)C2=O)C(O)=O

> <InChI>
InChI=1S/C18H19N3O5S/c1-2-3-10-8-27-17-13(16(24)21(17)14(10)18(25)26)20-15(23)12(19)9-4-6-11(22)7-5-9/h2-7,12-13,17,22H,8,19H2,1H3,(H,20,23)(H,25,26)/t12-,13-,17-/m1/s1

> <InChIKey>
WDLWHQDACQUCJR-PBFPGSCMSA-N

> <Traditional name>
cefprozilo

> <Common names>
cefprozilo; cefprozilum

> <CAS Registry Numbers(R)>
92665-29-7

$$$$
Ceftizoxime
  Mrv2222 01232613222D          

 25 27  0  0  1  0            999 V2000
   -4.0324   -0.7052    0.0000 C   0  0  0  0  0  0  0  0  0  0  0  0
   -3.2355   -0.9188    0.0000 O   0  0  0  0  0  0  0  0  0  0  0  0
   -3.0220   -1.7157    0.0000 N   0  0  0  0  0  0  0  0  0  0  0  0
   -2.2251   -1.9292    0.0000 C   0  0  0  0  0  0  0  0  0  0  0  0
   -2.0116   -2.7261    0.0000 C   0  0  0  0  0  0  0  0  0  0  0  0
   -1.2414   -3.0217    0.0000 C   0  0  0  0  0  0  0  0  0  0  0  0
   -1.2846   -3.8456    0.0000 S   0  0  0  0  0  0  0  0  0  0  0  0
   -2.0815   -4.0591    0.0000 C   0  0  0  0  0  0  0  0  0  0  0  0
   -2.5308   -3.3672    0.0000 N   0  0  0  0  0  0  0  0  0  0  0  0
   -2.3771   -4.8293    0.0000 N   0  0  0  0  0  0  0  0  0  0  0  0
   -1.6418   -1.3458    0.0000 C   0  0  0  0  0  0  0  0  0  0  0  0
   -1.8553   -0.5489    0.0000 O   0  0  0  0  0  0  0  0  0  0  0  0
   -0.8449   -1.5593    0.0000 N   0  0  0  0  0  0  0  0  0  0  0  0
   -0.2615   -0.9760    0.0000 C   0  0  1  0  0  0  0  0  0  0  0  0
    0.5635   -0.9760    0.0000 C   0  0  2  0  0  0  0  0  0  0  0  0
    0.5635   -0.1510    0.0000 N   0  0  0  0  0  0  0  0  0  0  0  0
   -0.2615   -0.1510    0.0000 C   0  0  0  0  0  0  0  0  0  0  0  0
   -0.8449    0.4324    0.0000 O   0  0  0  0  0  0  0  0  0  0  0  0
    1.2780    0.2615    0.0000 C   0  0  0  0  0  0  0  0  0  0  0  0
    1.9924   -0.1510    0.0000 C   0  0  0  0  0  0  0  0  0  0  0  0
    1.9924   -0.9760    0.0000 C   0  0  0  0  0  0  0  0  0  0  0  0
    1.2780   -1.3885    0.0000 S   0  0  0  0  0  0  0  0  0  0  0  0
    1.2780    1.0865    0.0000 C   0  0  0  0  0  0  0  0  0  0  0  0
    0.5635    1.4990    0.0000 O   0  0  0  0  0  0  0  0  0  0  0  0
    1.9924    1.4990    0.0000 O   0  0  0  0  0  0  0  0  0  0  0  0
  1  2  1  0  0  0  0
  2  3  1  0  0  0  0
  3  4  2  0  0  0  0
  4  5  1  0  0  0  0
  5  6  2  0  0  0  0
  6  7  1  0  0  0  0
  7  8  1  0  0  0  0
  8  9  2  0  0  0  0
  5  9  1  0  0  0  0
  8 10  1  0  0  0  0
  4 11  1  0  0  0  0
 11 12  2  0  0  0  0
 11 13  1  0  0  0  0
 14 13  1  6  0  0  0
 14 15  1  0  0  0  0
 15 16  1  6  0  0  0
 16 17  1  0  0  0  0
 14 17  1  0  0  0  0
 17 18  2  0  0  0  0
 16 19  1  0  0  0  0
 19 20  2  0  0  0  0
 20 21  1  0  0  0  0
 21 22  1  0  0  0  0
 15 22  1  0  0  0  0
 19 23  1  0  0  0  0
 23 24  2  0  0  0  0
 23 25  1  0  0  0  0
M  END
> <Molar mass [g/mol] [MProp:scalar:double]>
383.4

> <Exact mass [Da] [MProp:scalar:double]>
383.035810887

> <Formula>
C13H13N5O5S2

> <Composition>
C (40.73%), H (3.42%), N (18.27%), O (20.86%), S (16.72%)

> <Lipinski's rule of five [MProp:scalar:boolean]>
true

> <Atom count [MProp:scalar:integer]>
38

> <Heavy atom count [MProp:scalar:integer]>
25

> <Asymmetric atom count [MProp:scalar:integer]>
2

> <Rotatable bond count [MProp:scalar:integer]>
5

> <Ring count [MProp:scalar:integer]>
3

> <Aromatic ring count [MProp:scalar:integer]>
1

> <Hetero ring count [MProp:scalar:integer]>
3

> <FSP3 [MProp:scalar:double]>
0.31

> <Hydrogen bond donor count [MProp:scalar:integer]>
3

> <Hydrogen bond acceptor count [MProp:scalar:integer]>
8

> <Formal charge [MProp:scalar:integer]>
0

> <Topological polar surface area [A^2] [MProp:scalar:double]>
147.21

> <Polarizability [A^3] [MProp:scalar:double]>
33.71

> <Molar refractivity [cm^3/mol] [MProp:scalar:double]>
89.9

> <Van der Waals volume [A^3] [MProp:scalar:double]>
291.02

> <Minimum projection area [A^2] [MProp:scalar:double]>
52.27

> <Maximum projection area [A^2] [MProp:scalar:double]>
92.91

> <Minimum projection radius [A] [MProp:scalar:double]>
5.7

> <Maximum projection radius [A] [MProp:scalar:double]>
7.29

> <Van der Waals surface area [A^2] [MProp:scalar:double]>
422.69

> <Solvent accessible surface area [A^2] [MProp:scalar:double]>
537.82

> <Strongest acidic pKa [MProp:scalar:double]>
2.84

> <Strongest basic pKa [MProp:scalar:double]>
3.66

> <Isoelectric point [MProp:scalar:double]>
3.23

> <Intrinsic solubility [logS] [MProp:scalar:double]>
-4.1

> <Solubility category>
Moderate

> <logP [MProp:scalar:double]>
-0.87

> <logD_PH0 [MProp:scalar:double]>
-3.52

> <logD_PH1 [MProp:scalar:double]>
-2.15

> <logD_PH2 [MProp:scalar:double]>
-1.39

> <logD_PH3 [MProp:scalar:double]>
-0.87

> <logD_PH4 [MProp:scalar:double]>
-1.12

> <logD_PH5 [MProp:scalar:double]>
-1.96

> <logD_PH6 [MProp:scalar:double]>
-2.88

> <logD_PH7 [MProp:scalar:double]>
-3.48

> <logD_PH8 [MProp:scalar:double]>
-3.64

> <logD_PH9 [MProp:scalar:double]>
-3.66

> <logD_PH10 [MProp:scalar:double]>
-3.7

> <logD_PH11 [MProp:scalar:double]>
-3.97

> <logD_PH12 [MProp:scalar:double]>
-4.9

> <logD_PH13 [MProp:scalar:double]>
-6.0

> <logD_PH14 [MProp:scalar:double]>
-6.95

> <HLB [MProp:scalar:double]>
23.33

> <IUPAC name>
(6R,7R)-7-[(2Z)-2-(2-amino-1,3-thiazol-4-yl)-2-(methoxyimino)acetamido]-8-oxo-5-thia-1-azabicyclo[4.2.0]oct-2-ene-2-carboxylic acid

> <SMILES>
CO\N=C(/C(=O)N[C@H]1[C@H]2SCC=C(N2C1=O)C(O)=O)C1=CSC(N)=N1

> <InChI>
InChI=1S/C13H13N5O5S2/c1-23-17-7(5-4-25-13(14)15-5)9(19)16-8-10(20)18-6(12(21)22)2-3-24-11(8)18/h2,4,8,11H,3H2,1H3,(H2,14,15)(H,16,19)(H,21,22)/b17-7-/t8-,11-/m1/s1

> <InChIKey>
NNULBSISHYWZJU-LLKWHZGFSA-N

> <Traditional name>
ceftizoxime

> <Common names>
cefizox; cefizox in plastic container; ceftix; ceftizoxima; ceftizoxima [inn-spanish]; ceftizoxime; ceftizoxime (product); ceftizoxime (substance); ceftizoxime monosodium salt; ceftizoxime preparation; ceftizoxime sodium (substance); ceftizoxime sodium preparation; ceftizoximum; epocelin; eposerin; fujiwasa brand of cetizoxime sodium; glaxosmithkline brand of cetizoxime sodium; monosodium salt, ceftizoxime; salt, ceftizoxime monosodium; sodium, ceftizoxime; yamanouchi brand of ceftizoxime sodium

> <CAS Registry Numbers(R)>
68401-81-0

$$$$
Ceftriaxone
  Mrv2222 01232613222D          

 36 39  0  0  1  0            999 V2000
    3.4214   -0.6740    0.0000 C   0  0  0  0  0  0  0  0  0  0  0  0
    4.1358   -0.2615    0.0000 N   0  0  0  0  0  0  0  0  0  0  0  0
    4.1358    0.5635    0.0000 C   0  0  0  0  0  0  0  0  0  0  0  0
    4.8503    0.9760    0.0000 N   0  0  0  0  0  0  0  0  0  0  0  0
    5.5648    0.5635    0.0000 C   0  0  0  0  0  0  0  0  0  0  0  0
    6.2793    0.9760    0.0000 O   0  0  0  0  0  0  0  0  0  0  0  0
    5.5648   -0.2615    0.0000 C   0  0  0  0  0  0  0  0  0  0  0  0
    6.2793   -0.6740    0.0000 O   0  0  0  0  0  0  0  0  0  0  0  0
    4.8503   -0.6740    0.0000 N   0  0  0  0  0  0  0  0  0  0  0  0
    3.4214    0.9760    0.0000 S   0  0  0  0  0  0  0  0  0  0  0  0
    2.7069    0.5635    0.0000 C   0  0  0  0  0  0  0  0  0  0  0  0
    1.9924    0.9760    0.0000 C   0  0  0  0  0  0  0  0  0  0  0  0
    1.2780    0.5635    0.0000 C   0  0  0  0  0  0  0  0  0  0  0  0
    0.5635    0.9760    0.0000 N   0  0  0  0  0  0  0  0  0  0  0  0
    0.5635    1.8010    0.0000 C   0  0  1  0  0  0  0  0  0  0  0  0
   -0.2615    1.8010    0.0000 C   0  0  1  0  0  0  0  0  0  0  0  0
   -0.2615    0.9760    0.0000 C   0  0  0  0  0  0  0  0  0  0  0  0
   -0.8449    0.3926    0.0000 O   0  0  0  0  0  0  0  0  0  0  0  0
   -0.8449    2.3843    0.0000 N   0  0  0  0  0  0  0  0  0  0  0  0
   -1.6418    2.1708    0.0000 C   0  0  0  0  0  0  0  0  0  0  0  0
   -1.8553    1.3739    0.0000 O   0  0  0  0  0  0  0  0  0  0  0  0
   -2.2251    2.7542    0.0000 C   0  0  0  0  0  0  0  0  0  0  0  0
   -2.0116    3.5511    0.0000 N   0  0  0  0  0  0  0  0  0  0  0  0
   -1.2147    3.7646    0.0000 O   0  0  0  0  0  0  0  0  0  0  0  0
   -1.0012    4.5615    0.0000 C   0  0  0  0  0  0  0  0  0  0  0  0
   -3.0220    2.5407    0.0000 C   0  0  0  0  0  0  0  0  0  0  0  0
   -3.3177    1.7705    0.0000 C   0  0  0  0  0  0  0  0  0  0  0  0
   -4.1415    1.8136    0.0000 S   0  0  0  0  0  0  0  0  0  0  0  0
   -4.3551    2.6105    0.0000 C   0  0  0  0  0  0  0  0  0  0  0  0
   -3.6632    3.0598    0.0000 N   0  0  0  0  0  0  0  0  0  0  0  0
   -5.1253    2.9062    0.0000 N   0  0  0  0  0  0  0  0  0  0  0  0
    1.2780    2.2135    0.0000 S   0  0  0  0  0  0  0  0  0  0  0  0
    1.9924    1.8010    0.0000 C   0  0  0  0  0  0  0  0  0  0  0  0
    1.2780   -0.2615    0.0000 C   0  0  0  0  0  0  0  0  0  0  0  0
    0.5635   -0.6740    0.0000 O   0  0  0  0  0  0  0  0  0  0  0  0
    1.9924   -0.6740    0.0000 O   0  0  0  0  0  0  0  0  0  0  0  0
  1  2  1  0  0  0  0
  2  3  1  0  0  0  0
  3  4  2  0  0  0  0
  4  5  1  0  0  0  0
  5  6  2  0  0  0  0
  5  7  1  0  0  0  0
  7  8  2  0  0  0  0
  7  9  1  0  0  0  0
  2  9  1  0  0  0  0
  3 10  1  0  0  0  0
 10 11  1  0  0  0  0
 11 12  1  0  0  0  0
 12 13  2  0  0  0  0
 13 14  1  0  0  0  0
 15 14  1  1  0  0  0
 15 16  1  0  0  0  0
 16 17  1  0  0  0  0
 14 17  1  0  0  0  0
 17 18  2  0  0  0  0
 16 19  1  1  0  0  0
 19 20  1  0  0  0  0
 20 21  2  0  0  0  0
 20 22  1  0  0  0  0
 22 23  2  0  0  0  0
 23 24  1  0  0  0  0
 24 25  1  0  0  0  0
 22 26  1  0  0  0  0
 26 27  2  0  0  0  0
 27 28  1  0  0  0  0
 28 29  1  0  0  0  0
 29 30  2  0  0  0  0
 26 30  1  0  0  0  0
 29 31  1  0  0  0  0
 15 32  1  0  0  0  0
 32 33  1  0  0  0  0
 12 33  1  0  0  0  0
 13 34  1  0  0  0  0
 34 35  2  0  0  0  0
 34 36  1  0  0  0  0
M  END
> <Molar mass [g/mol] [MProp:scalar:double]>
554.57

> <Exact mass [Da] [MProp:scalar:double]>
554.046058474

> <Formula>
C18H18N8O7S3

> <Composition>
C (38.98%), H (3.27%), N (20.21%), O (20.19%), S (17.34%)

> <Lipinski's rule of five [MProp:scalar:boolean]>
false

> <Atom count [MProp:scalar:integer]>
54

> <Heavy atom count [MProp:scalar:integer]>
36

> <Asymmetric atom count [MProp:scalar:integer]>
2

> <Rotatable bond count [MProp:scalar:integer]>
8

> <Ring count [MProp:scalar:integer]>
4

> <Aromatic ring count [MProp:scalar:integer]>
2

> <Hetero ring count [MProp:scalar:integer]>
4

> <FSP3 [MProp:scalar:double]>
0.33

> <Hydrogen bond donor count [MProp:scalar:integer]>
4

> <Hydrogen bond acceptor count [MProp:scalar:integer]>
12

> <Formal charge [MProp:scalar:integer]>
0

> <Topological polar surface area [A^2] [MProp:scalar:double]>
208.98

> <Polarizability [A^3] [MProp:scalar:double]>
48.6

> <Molar refractivity [cm^3/mol] [MProp:scalar:double]>
128.47

> <Van der Waals volume [A^3] [MProp:scalar:double]>
417.5

> <Minimum projection area [A^2] [MProp:scalar:double]>
62.98

> <Maximum projection area [A^2] [MProp:scalar:double]>
119.7

> <Minimum projection radius [A] [MProp:scalar:double]>
5.65

> <Maximum projection radius [A] [MProp:scalar:double]>
10.0

> <Van der Waals surface area [A^2] [MProp:scalar:double]>
608.87

> <Solvent accessible surface area [A^2] [MProp:scalar:double]>
731.07

> <Strongest acidic pKa [MProp:scalar:double]>
2.87

> <Strongest basic pKa [MProp:scalar:double]>
3.38

> <Isoelectric point [MProp:scalar:double]>
2.99

> <Intrinsic solubility [logS] [MProp:scalar:double]>
-5.19

> <Solubility category>
Low

> <logP [MProp:scalar:double]>
-1.83

> <logD_PH0 [MProp:scalar:double]>
-4.92

> <logD_PH1 [MProp:scalar:double]>
-3.29

> <logD_PH2 [MProp:scalar:double]>
-2.37

> <logD_PH3 [MProp:scalar:double]>
-1.83

> <logD_PH4 [MProp:scalar:double]>
-2.37

> <logD_PH5 [MProp:scalar:double]>
-3.58

> <logD_PH6 [MProp:scalar:double]>
-4.61

> <logD_PH7 [MProp:scalar:double]>
-5.29

> <logD_PH8 [MProp:scalar:double]>
-5.49

> <logD_PH9 [MProp:scalar:double]>
-5.52

> <logD_PH10 [MProp:scalar:double]>
-5.56

> <logD_PH11 [MProp:scalar:double]>
-5.84

> <logD_PH12 [MProp:scalar:double]>
-6.77

> <logD_PH13 [MProp:scalar:double]>
-7.86

> <logD_PH14 [MProp:scalar:double]>
-8.82

> <HLB [MProp:scalar:double]>
24.82

> <IUPAC name>
(6R,7R)-7-[(2Z)-2-(2-amino-1,3-thiazol-4-yl)-2-(methoxyimino)acetamido]-3-{[(2-methyl-5,6-dioxo-1,2,5,6-tetrahydro-1,2,4-triazin-3-yl)sulfanyl]methyl}-8-oxo-5-thia-1-azabicyclo[4.2.0]oct-2-ene-2-carboxylic acid

> <SMILES>
CO\N=C(/C(=O)N[C@H]1[C@H]2SCC(CSC3=NC(=O)C(=O)NN3C)=C(N2C1=O)C(O)=O)C1=CSC(N)=N1

> <InChI>
InChI=1S/C18H18N8O7S3/c1-25-18(22-12(28)13(29)23-25)36-4-6-3-34-15-9(14(30)26(15)10(6)16(31)32)21-11(27)8(24-33-2)7-5-35-17(19)20-7/h5,9,15H,3-4H2,1-2H3,(H2,19,20)(H,21,27)(H,23,29)(H,31,32)/b24-8-/t9-,15-/m1/s1

> <InChIKey>
VAAUVRVFOQPIGI-SPQHTLEESA-N

> <Traditional name>
ceftriaxone

> <Common names>
ceftriaxona; ceftriaxone; ceftriaxonum

> <CAS Registry Numbers(R)>
73384-59-5, 104376-79-6

$$$$
Cefuroxime
  Mrv2222 01232613222D          

 29 31  0  0  1  0            999 V2000
   -4.0324   -0.7052    0.0000 C   0  0  0  0  0  0  0  0  0  0  0  0
   -3.2355   -0.9188    0.0000 O   0  0  0  0  0  0  0  0  0  0  0  0
   -3.0220   -1.7157    0.0000 N   0  0  0  0  0  0  0  0  0  0  0  0
   -2.2251   -1.9292    0.0000 C   0  0  0  0  0  0  0  0  0  0  0  0
   -2.0116   -2.7261    0.0000 C   0  0  0  0  0  0  0  0  0  0  0  0
   -1.2414   -3.0217    0.0000 C   0  0  0  0  0  0  0  0  0  0  0  0
   -1.2846   -3.8456    0.0000 C   0  0  0  0  0  0  0  0  0  0  0  0
   -2.0815   -4.0591    0.0000 C   0  0  0  0  0  0  0  0  0  0  0  0
   -2.5308   -3.3672    0.0000 O   0  0  0  0  0  0  0  0  0  0  0  0
   -1.6418   -1.3458    0.0000 C   0  0  0  0  0  0  0  0  0  0  0  0
   -1.8553   -0.5489    0.0000 O   0  0  0  0  0  0  0  0  0  0  0  0
   -0.8449   -1.5593    0.0000 N   0  0  0  0  0  0  0  0  0  0  0  0
   -0.2615   -0.9760    0.0000 C   0  0  1  0  0  0  0  0  0  0  0  0
    0.5635   -0.9760    0.0000 C   0  0  2  0  0  0  0  0  0  0  0  0
    0.5635   -0.1510    0.0000 N   0  0  0  0  0  0  0  0  0  0  0  0
   -0.2615   -0.1510    0.0000 C   0  0  0  0  0  0  0  0  0  0  0  0
   -0.8449    0.4324    0.0000 O   0  0  0  0  0  0  0  0  0  0  0  0
    1.2780    0.2615    0.0000 C   0  0  0  0  0  0  0  0  0  0  0  0
    1.9924   -0.1510    0.0000 C   0  0  0  0  0  0  0  0  0  0  0  0
    1.9924   -0.9760    0.0000 C   0  0  0  0  0  0  0  0  0  0  0  0
    1.2780   -1.3885    0.0000 S   0  0  0  0  0  0  0  0  0  0  0  0
    2.7069    0.2615    0.0000 C   0  0  0  0  0  0  0  0  0  0  0  0
    2.7069    1.0865    0.0000 O   0  0  0  0  0  0  0  0  0  0  0  0
    3.4214    1.4990    0.0000 C   0  0  0  0  0  0  0  0  0  0  0  0
    3.4214    2.3240    0.0000 O   0  0  0  0  0  0  0  0  0  0  0  0
    4.1358    1.0865    0.0000 N   0  0  0  0  0  0  0  0  0  0  0  0
    1.2780    1.0865    0.0000 C   0  0  0  0  0  0  0  0  0  0  0  0
    1.9924    1.4990    0.0000 O   0  0  0  0  0  0  0  0  0  0  0  0
    0.5635    1.4990    0.0000 O   0  0  0  0  0  0  0  0  0  0  0  0
  1  2  1  0  0  0  0
  2  3  1  0  0  0  0
  3  4  2  0  0  0  0
  4  5  1  0  0  0  0
  5  6  2  0  0  0  0
  6  7  1  0  0  0  0
  7  8  2  0  0  0  0
  8  9  1  0  0  0  0
  5  9  1  0  0  0  0
  4 10  1  0  0  0  0
 10 11  2  0  0  0  0
 10 12  1  0  0  0  0
 13 12  1  6  0  0  0
 13 14  1  0  0  0  0
 14 15  1  6  0  0  0
 15 16  1  0  0  0  0
 13 16  1  0  0  0  0
 16 17  2  0  0  0  0
 15 18  1  0  0  0  0
 18 19  2  0  0  0  0
 19 20  1  0  0  0  0
 20 21  1  0  0  0  0
 14 21  1  0  0  0  0
 19 22  1  0  0  0  0
 22 23  1  0  0  0  0
 23 24  1  0  0  0  0
 24 25  2  0  0  0  0
 24 26  1  0  0  0  0
 18 27  1  0  0  0  0
 27 28  2  0  0  0  0
 27 29  1  0  0  0  0
M  END
> <Molar mass [g/mol] [MProp:scalar:double]>
424.38

> <Exact mass [Da] [MProp:scalar:double]>
424.068884665

> <Formula>
C16H16N4O8S

> <Composition>
C (45.28%), H (3.80%), N (13.20%), O (30.16%), S (7.55%)

> <Lipinski's rule of five [MProp:scalar:boolean]>
true

> <Atom count [MProp:scalar:integer]>
45

> <Heavy atom count [MProp:scalar:integer]>
29

> <Asymmetric atom count [MProp:scalar:integer]>
2

> <Rotatable bond count [MProp:scalar:integer]>
8

> <Ring count [MProp:scalar:integer]>
3

> <Aromatic ring count [MProp:scalar:integer]>
1

> <Hetero ring count [MProp:scalar:integer]>
3

> <FSP3 [MProp:scalar:double]>
0.31

> <Hydrogen bond donor count [MProp:scalar:integer]>
3

> <Hydrogen bond acceptor count [MProp:scalar:integer]>
7

> <Formal charge [MProp:scalar:integer]>
0

> <Topological polar surface area [A^2] [MProp:scalar:double]>
173.76

> <Polarizability [A^3] [MProp:scalar:double]>
37.3

> <Molar refractivity [cm^3/mol] [MProp:scalar:double]>
97.17

> <Van der Waals volume [A^3] [MProp:scalar:double]>
330.42

> <Minimum projection area [A^2] [MProp:scalar:double]>
59.51

> <Maximum projection area [A^2] [MProp:scalar:double]>
95.21

> <Minimum projection radius [A] [MProp:scalar:double]>
5.32

> <Maximum projection radius [A] [MProp:scalar:double]>
7.82

> <Van der Waals surface area [A^2] [MProp:scalar:double]>
498.47

> <Solvent accessible surface area [A^2] [MProp:scalar:double]>
630.21

> <Strongest acidic pKa [MProp:scalar:double]>
3.21

> <Strongest basic pKa [MProp:scalar:double]>
1.66

> <Isoelectric point [MProp:scalar:double]>
2.39

> <Intrinsic solubility [logS] [MProp:scalar:double]>
-3.95

> <Solubility category>
Moderate

> <logP [MProp:scalar:double]>
-1.16

> <logD_PH0 [MProp:scalar:double]>
-3.71

> <logD_PH1 [MProp:scalar:double]>
-2.0

> <logD_PH2 [MProp:scalar:double]>
-1.16

> <logD_PH3 [MProp:scalar:double]>
-1.19

> <logD_PH4 [MProp:scalar:double]>
-1.82

> <logD_PH5 [MProp:scalar:double]>
-2.75

> <logD_PH6 [MProp:scalar:double]>
-3.67

> <logD_PH7 [MProp:scalar:double]>
-4.26

> <logD_PH8 [MProp:scalar:double]>
-4.41

> <logD_PH9 [MProp:scalar:double]>
-4.43

> <logD_PH10 [MProp:scalar:double]>
-4.47

> <logD_PH11 [MProp:scalar:double]>
-4.75

> <logD_PH12 [MProp:scalar:double]>
-5.69

> <logD_PH13 [MProp:scalar:double]>
-6.78

> <logD_PH14 [MProp:scalar:double]>
-7.68

> <HLB [MProp:scalar:double]>
24.15

> <IUPAC name>
(6R,7R)-3-[(carbamoyloxy)methyl]-7-[(2Z)-2-(furan-2-yl)-2-(methoxyimino)acetamido]-8-oxo-5-thia-1-azabicyclo[4.2.0]oct-2-ene-2-carboxylic acid

> <SMILES>
CO\N=C(/C(=O)N[C@H]1[C@H]2SCC(COC(N)=O)=C(N2C1=O)C(O)=O)C1=CC=CO1

> <InChI>
InChI=1S/C16H16N4O8S/c1-26-19-9(8-3-2-4-27-8)12(21)18-10-13(22)20-11(15(23)24)7(5-28-16(17)25)6-29-14(10)20/h2-4,10,14H,5-6H2,1H3,(H2,17,25)(H,18,21)(H,23,24)/b19-9-/t10-,14-/m1/s1

> <InChIKey>
JFPVXVDWJQMJEE-IZRZKJBUSA-N

> <Traditional name>
sharox

> <Common names>
cefuroximo; cefuroximum; cephuroxime; sharox; zinacef danmark

> <CAS Registry Numbers(R)>
55268-75-2

$$$$
Cephalexin
  Mrv2222 01232613222D          

 24 26  0  0  1  0            999 V2000
    2.7069    0.5635    0.0000 C   0  0  0  0  0  0  0  0  0  0  0  0
    1.9924    0.9760    0.0000 C   0  0  0  0  0  0  0  0  0  0  0  0
    1.2780    0.5635    0.0000 C   0  0  0  0  0  0  0  0  0  0  0  0
    0.5635    0.9760    0.0000 N   0  0  0  0  0  0  0  0  0  0  0  0
    0.5635    1.8010    0.0000 C   0  0  1  0  0  0  0  0  0  0  0  0
   -0.2615    1.8010    0.0000 C   0  0  1  0  0  0  0  0  0  0  0  0
   -0.2615    0.9760    0.0000 C   0  0  0  0  0  0  0  0  0  0  0  0
   -0.8449    0.3926    0.0000 O   0  0  0  0  0  0  0  0  0  0  0  0
   -0.8449    2.3843    0.0000 N   0  0  0  0  0  0  0  0  0  0  0  0
   -0.6314    3.1812    0.0000 C   0  0  0  0  0  0  0  0  0  0  0  0
    0.1655    3.3948    0.0000 O   0  0  0  0  0  0  0  0  0  0  0  0
   -1.2147    3.7646    0.0000 C   0  0  1  0  0  0  0  0  0  0  0  0
   -1.0012    4.5615    0.0000 C   0  0  0  0  0  0  0  0  0  0  0  0
   -1.5846    5.1449    0.0000 C   0  0  0  0  0  0  0  0  0  0  0  0
   -1.3710    5.9417    0.0000 C   0  0  0  0  0  0  0  0  0  0  0  0
   -0.5741    6.1553    0.0000 C   0  0  0  0  0  0  0  0  0  0  0  0
    0.0092    5.5719    0.0000 C   0  0  0  0  0  0  0  0  0  0  0  0
   -0.2043    4.7750    0.0000 C   0  0  0  0  0  0  0  0  0  0  0  0
   -2.0116    3.5511    0.0000 N   0  0  0  0  0  0  0  0  0  0  0  0
    1.2780    2.2135    0.0000 S   0  0  0  0  0  0  0  0  0  0  0  0
    1.9924    1.8010    0.0000 C   0  0  0  0  0  0  0  0  0  0  0  0
    1.2780   -0.2615    0.0000 C   0  0  0  0  0  0  0  0  0  0  0  0
    0.5635   -0.6740    0.0000 O   0  0  0  0  0  0  0  0  0  0  0  0
    1.9924   -0.6740    0.0000 O   0  0  0  0  0  0  0  0  0  0  0  0
  1  2  1  0  0  0  0
  2  3  2  0  0  0  0
  3  4  1  0  0  0  0
  5  4  1  1  0  0  0
  5  6  1  0  0  0  0
  6  7  1  0  0  0  0
  4  7  1  0  0  0  0
  7  8  2  0  0  0  0
  6  9  1  1  0  0  0
  9 10  1  0  0  0  0
 10 11  2  0  0  0  0
 12 10  1  0  0  0  0
 12 13  1  0  0  0  0
 13 14  2  0  0  0  0
 14 15  1  0  0  0  0
 15 16  2  0  0  0  0
 16 17  1  0  0  0  0
 17 18  2  0  0  0  0
 13 18  1  0  0  0  0
 12 19  1  6  0  0  0
  5 20  1  0  0  0  0
 20 21  1  0  0  0  0
  2 21  1  0  0  0  0
  3 22  1  0  0  0  0
 22 23  2  0  0  0  0
 22 24  1  0  0  0  0
M  END
> <Molar mass [g/mol] [MProp:scalar:double]>
347.39

> <Exact mass [Da] [MProp:scalar:double]>
347.093977213

> <Formula>
C16H17N3O4S

> <Composition>
C (55.32%), H (4.93%), N (12.10%), O (18.42%), S (9.23%)

> <Lipinski's rule of five [MProp:scalar:boolean]>
true

> <Atom count [MProp:scalar:integer]>
41

> <Heavy atom count [MProp:scalar:integer]>
24

> <Asymmetric atom count [MProp:scalar:integer]>
3

> <Rotatable bond count [MProp:scalar:integer]>
4

> <Ring count [MProp:scalar:integer]>
3

> <Aromatic ring count [MProp:scalar:integer]>
1

> <Hetero ring count [MProp:scalar:integer]>
2

> <FSP3 [MProp:scalar:double]>
0.31

> <Hydrogen bond donor count [MProp:scalar:integer]>
3

> <Hydrogen bond acceptor count [MProp:scalar:integer]>
5

> <Formal charge [MProp:scalar:integer]>
0

> <Topological polar surface area [A^2] [MProp:scalar:double]>
112.73

> <Polarizability [A^3] [MProp:scalar:double]>
34.63

> <Molar refractivity [cm^3/mol] [MProp:scalar:double]>
88.97

> <Van der Waals volume [A^3] [MProp:scalar:double]>
290.68

> <Minimum projection area [A^2] [MProp:scalar:double]>
43.27

> <Maximum projection area [A^2] [MProp:scalar:double]>
89.32

> <Minimum projection radius [A] [MProp:scalar:double]>
4.39

> <Maximum projection radius [A] [MProp:scalar:double]>
7.8

> <Van der Waals surface area [A^2] [MProp:scalar:double]>
433.17

> <Solvent accessible surface area [A^2] [MProp:scalar:double]>
490.65

> <Strongest acidic pKa [MProp:scalar:double]>
3.51

> <Strongest basic pKa [MProp:scalar:double]>
7.23

> <Isoelectric point [MProp:scalar:double]>
5.5

> <Intrinsic solubility [logS] [MProp:scalar:double]>
-3.96

> <Solubility category>
Moderate

> <logP [MProp:scalar:double]>
-2.14

> <logD_PH0 [MProp:scalar:double]>
-6.34

> <logD_PH1 [MProp:scalar:double]>
-4.5

> <logD_PH2 [MProp:scalar:double]>
-3.24

> <logD_PH3 [MProp:scalar:double]>
-2.62

> <logD_PH4 [MProp:scalar:double]>
-2.23

> <logD_PH5 [MProp:scalar:double]>
-2.14

> <logD_PH6 [MProp:scalar:double]>
-2.15

> <logD_PH7 [MProp:scalar:double]>
-2.32

> <logD_PH8 [MProp:scalar:double]>
-2.85

> <logD_PH9 [MProp:scalar:double]>
-3.29

> <logD_PH10 [MProp:scalar:double]>
-3.4

> <logD_PH11 [MProp:scalar:double]>
-3.45

> <logD_PH12 [MProp:scalar:double]>
-3.74

> <logD_PH13 [MProp:scalar:double]>
-4.6

> <logD_PH14 [MProp:scalar:double]>
-5.63

> <HLB [MProp:scalar:double]>
26.33

> <IUPAC name>
(6R,7R)-7-[(2R)-2-amino-2-phenylacetamido]-3-methyl-8-oxo-5-thia-1-azabicyclo[4.2.0]oct-2-ene-2-carboxylic acid

> <SMILES>
CC1=C(N2[C@H](SC1)[C@H](NC(=O)[C@H](N)C1=CC=CC=C1)C2=O)C(O)=O

> <InChI>
InChI=1S/C16H17N3O4S/c1-8-7-24-15-11(14(21)19(15)12(8)16(22)23)18-13(20)10(17)9-5-3-2-4-6-9/h2-6,10-11,15H,7,17H2,1H3,(H,18,20)(H,22,23)/t10-,11-,15-/m1/s1

> <InChIKey>
ZAIPMKNFIOOWCQ-UEKVPHQBSA-N

> <Traditional name>
cephalexin

> <Common names>
CEX; cefalessina; cefalexin; cefalexin sodium; cefalexina; cefalexina [inn-spanish]; cefalexine; cefalexine [inn-french]; cefalexinum; celexin; cepastar; cepexin; cephacillin; cephalexin; cephalexin 1-hydrate; cephalexin hydrate; cephalexine; cephalexinum; ceporexin; check

> <CAS Registry Numbers(R)>
15686-71-2, 34632-04-7

$$$$
Cephalothin
  Mrv2222 01232613222D          

 26 28  0  0  1  0            999 V2000
    4.8503    0.9760    0.0000 C   0  0  0  0  0  0  0  0  0  0  0  0
    4.1358    0.5635    0.0000 C   0  0  0  0  0  0  0  0  0  0  0  0
    4.1358   -0.2615    0.0000 O   0  0  0  0  0  0  0  0  0  0  0  0
    3.4214    0.9760    0.0000 O   0  0  0  0  0  0  0  0  0  0  0  0
    2.7069    0.5635    0.0000 C   0  0  0  0  0  0  0  0  0  0  0  0
    1.9924    0.9760    0.0000 C   0  0  0  0  0  0  0  0  0  0  0  0
    1.2780    0.5635    0.0000 C   0  0  0  0  0  0  0  0  0  0  0  0
    0.5635    0.9760    0.0000 N   0  0  0  0  0  0  0  0  0  0  0  0
    0.5635    1.8010    0.0000 C   0  0  1  0  0  0  0  0  0  0  0  0
   -0.2615    1.8010    0.0000 C   0  0  1  0  0  0  0  0  0  0  0  0
   -0.2615    0.9760    0.0000 C   0  0  0  0  0  0  0  0  0  0  0  0
   -0.8449    0.3926    0.0000 O   0  0  0  0  0  0  0  0  0  0  0  0
   -0.8449    2.3843    0.0000 N   0  0  0  0  0  0  0  0  0  0  0  0
   -0.6314    3.1812    0.0000 C   0  0  0  0  0  0  0  0  0  0  0  0
    0.1655    3.3948    0.0000 O   0  0  0  0  0  0  0  0  0  0  0  0
   -1.2147    3.7646    0.0000 C   0  0  0  0  0  0  0  0  0  0  0  0
   -1.0012    4.5615    0.0000 C   0  0  0  0  0  0  0  0  0  0  0  0
   -1.5204    5.2026    0.0000 C   0  0  0  0  0  0  0  0  0  0  0  0
   -1.0711    5.8945    0.0000 C   0  0  0  0  0  0  0  0  0  0  0  0
   -0.2742    5.6810    0.0000 C   0  0  0  0  0  0  0  0  0  0  0  0
   -0.2310    4.8571    0.0000 S   0  0  0  0  0  0  0  0  0  0  0  0
    1.2780    2.2135    0.0000 S   0  0  0  0  0  0  0  0  0  0  0  0
    1.9924    1.8010    0.0000 C   0  0  0  0  0  0  0  0  0  0  0  0
    1.2780   -0.2615    0.0000 C   0  0  0  0  0  0  0  0  0  0  0  0
    0.5635   -0.6740    0.0000 O   0  0  0  0  0  0  0  0  0  0  0  0
    1.9924   -0.6740    0.0000 O   0  0  0  0  0  0  0  0  0  0  0  0
  1  2  1  0  0  0  0
  2  3  2  0  0  0  0
  2  4  1  0  0  0  0
  4  5  1  0  0  0  0
  5  6  1  0  0  0  0
  6  7  2  0  0  0  0
  7  8  1  0  0  0  0
  9  8  1  1  0  0  0
  9 10  1  0  0  0  0
 10 11  1  0  0  0  0
  8 11  1  0  0  0  0
 11 12  2  0  0  0  0
 10 13  1  1  0  0  0
 13 14  1  0  0  0  0
 14 15  2  0  0  0  0
 14 16  1  0  0  0  0
 16 17  1  0  0  0  0
 17 18  2  0  0  0  0
 18 19  1  0  0  0  0
 19 20  2  0  0  0  0
 20 21  1  0  0  0  0
 17 21  1  0  0  0  0
  9 22  1  0  0  0  0
 22 23  1  0  0  0  0
  6 23  1  0  0  0  0
  7 24  1  0  0  0  0
 24 25  2  0  0  0  0
 24 26  1  0  0  0  0
M  END
> <Molar mass [g/mol] [MProp:scalar:double]>
396.43

> <Exact mass [Da] [MProp:scalar:double]>
396.044978591

> <Formula>
C16H16N2O6S2

> <Composition>
C (48.48%), H (4.07%), N (7.07%), O (24.21%), S (16.17%)

> <Lipinski's rule of five [MProp:scalar:boolean]>
true

> <Atom count [MProp:scalar:integer]>
42

> <Heavy atom count [MProp:scalar:integer]>
26

> <Asymmetric atom count [MProp:scalar:integer]>
2

> <Rotatable bond count [MProp:scalar:integer]>
7

> <Ring count [MProp:scalar:integer]>
3

> <Aromatic ring count [MProp:scalar:integer]>
1

> <Hetero ring count [MProp:scalar:integer]>
3

> <FSP3 [MProp:scalar:double]>
0.37

> <Hydrogen bond donor count [MProp:scalar:integer]>
2

> <Hydrogen bond acceptor count [MProp:scalar:integer]>
5

> <Formal charge [MProp:scalar:integer]>
0

> <Topological polar surface area [A^2] [MProp:scalar:double]>
113.01

> <Polarizability [A^3] [MProp:scalar:double]>
36.38

> <Molar refractivity [cm^3/mol] [MProp:scalar:double]>
93.79

> <Van der Waals volume [A^3] [MProp:scalar:double]>
315.17

> <Minimum projection area [A^2] [MProp:scalar:double]>
51.59

> <Maximum projection area [A^2] [MProp:scalar:double]>
103.13

> <Minimum projection radius [A] [MProp:scalar:double]>
4.66

> <Maximum projection radius [A] [MProp:scalar:double]>
8.4

> <Van der Waals surface area [A^2] [MProp:scalar:double]>
473.32

> <Solvent accessible surface area [A^2] [MProp:scalar:double]>
563.6

> <Strongest acidic pKa [MProp:scalar:double]>
3.67

> <Strongest basic pKa [MProp:scalar:double]>
2.04

> <Isoelectric point [MProp:scalar:double]>
2.89

> <Intrinsic solubility [logS] [MProp:scalar:double]>
-3.81

> <Solubility category>
High

> <logP [MProp:scalar:double]>
-0.15

> <logD_PH0 [MProp:scalar:double]>
-3.48

> <logD_PH1 [MProp:scalar:double]>
-1.65

> <logD_PH2 [MProp:scalar:double]>
-0.41

> <logD_PH3 [MProp:scalar:double]>
-0.15

> <logD_PH4 [MProp:scalar:double]>
-0.53

> <logD_PH5 [MProp:scalar:double]>
-1.37

> <logD_PH6 [MProp:scalar:double]>
-2.33

> <logD_PH7 [MProp:scalar:double]>
-3.13

> <logD_PH8 [MProp:scalar:double]>
-3.46

> <logD_PH9 [MProp:scalar:double]>
-3.51

> <logD_PH10 [MProp:scalar:double]>
-3.52

> <logD_PH11 [MProp:scalar:double]>
-3.58

> <logD_PH12 [MProp:scalar:double]>
-3.93

> <logD_PH13 [MProp:scalar:double]>
-4.77

> <logD_PH14 [MProp:scalar:double]>
-5.75

> <HLB [MProp:scalar:double]>
22.72

> <IUPAC name>
(6R,7R)-3-[(acetyloxy)methyl]-8-oxo-7-[2-(thiophen-2-yl)acetamido]-5-thia-1-azabicyclo[4.2.0]oct-2-ene-2-carboxylic acid

> <SMILES>
CC(=O)OCC1=C(N2[C@H](SC1)[C@H](NC(=O)CC1=CC=CS1)C2=O)C(O)=O

> <InChI>
InChI=1S/C16H16N2O6S2/c1-8(19)24-6-9-7-26-15-12(14(21)18(15)13(9)16(22)23)17-11(20)5-10-3-2-4-25-10/h2-4,12,15H,5-7H2,1H3,(H,17,20)(H,22,23)/t12-,15-/m1/s1

> <InChIKey>
XIURVHNZVLADCM-IUODEOHRSA-N

> <Traditional name>
cefalotin

> <Common names>
CET; cefalothin; cefalotin; cefalotina [inn-spanish]; cefalotine [inn-french]; cefalotinum; cephalothin; cephalothinum; cephalotin

> <CAS Registry Numbers(R)>
153-61-7, 51098-29-4

$$$$
Cephradine
  Mrv2222 01232613222D          

 24 26  0  0  1  0            999 V2000
    2.7069    0.5635    0.0000 C   0  0  0  0  0  0  0  0  0  0  0  0
    1.9924    0.9760    0.0000 C   0  0  0  0  0  0  0  0  0  0  0  0
    1.2780    0.5635    0.0000 C   0  0  0  0  0  0  0  0  0  0  0  0
    0.5635    0.9760    0.0000 N   0  0  0  0  0  0  0  0  0  0  0  0
    0.5635    1.8010    0.0000 C   0  0  1  0  0  0  0  0  0  0  0  0
   -0.2615    1.8010    0.0000 C   0  0  1  0  0  0  0  0  0  0  0  0
   -0.2615    0.9760    0.0000 C   0  0  0  0  0  0  0  0  0  0  0  0
   -0.8449    0.3926    0.0000 O   0  0  0  0  0  0  0  0  0  0  0  0
   -0.8449    2.3843    0.0000 N   0  0  0  0  0  0  0  0  0  0  0  0
   -0.6314    3.1812    0.0000 C   0  0  0  0  0  0  0  0  0  0  0  0
    0.1655    3.3948    0.0000 O   0  0  0  0  0  0  0  0  0  0  0  0
   -1.2147    3.7646    0.0000 C   0  0  1  0  0  0  0  0  0  0  0  0
   -1.0012    4.5615    0.0000 C   0  0  0  0  0  0  0  0  0  0  0  0
   -1.5846    5.1449    0.0000 C   0  0  0  0  0  0  0  0  0  0  0  0
   -1.3710    5.9417    0.0000 C   0  0  0  0  0  0  0  0  0  0  0  0
   -0.5741    6.1553    0.0000 C   0  0  0  0  0  0  0  0  0  0  0  0
    0.0092    5.5719    0.0000 C   0  0  0  0  0  0  0  0  0  0  0  0
   -0.2043    4.7750    0.0000 C   0  0  0  0  0  0  0  0  0  0  0  0
   -2.0116    3.5511    0.0000 N   0  0  0  0  0  0  0  0  0  0  0  0
    1.2780    2.2135    0.0000 S   0  0  0  0  0  0  0  0  0  0  0  0
    1.9924    1.8010    0.0000 C   0  0  0  0  0  0  0  0  0  0  0  0
    1.2780   -0.2615    0.0000 C   0  0  0  0  0  0  0  0  0  0  0  0
    0.5635   -0.6740    0.0000 O   0  0  0  0  0  0  0  0  0  0  0  0
    1.9924   -0.6740    0.0000 O   0  0  0  0  0  0  0  0  0  0  0  0
  1  2  1  0  0  0  0
  2  3  2  0  0  0  0
  3  4  1  0  0  0  0
  5  4  1  1  0  0  0
  5  6  1  0  0  0  0
  6  7  1  0  0  0  0
  4  7  1  0  0  0  0
  7  8  2  0  0  0  0
  6  9  1  1  0  0  0
  9 10  1  0  0  0  0
 10 11  2  0  0  0  0
 12 10  1  0  0  0  0
 12 13  1  0  0  0  0
 13 14  2  0  0  0  0
 14 15  1  0  0  0  0
 15 16  1  0  0  0  0
 16 17  2  0  0  0  0
 17 18  1  0  0  0  0
 13 18  1  0  0  0  0
 12 19  1  6  0  0  0
  5 20  1  0  0  0  0
 20 21  1  0  0  0  0
  2 21  1  0  0  0  0
  3 22  1  0  0  0  0
 22 23  2  0  0  0  0
 22 24  1  0  0  0  0
M  END
> <Molar mass [g/mol] [MProp:scalar:double]>
349.41

> <Exact mass [Da] [MProp:scalar:double]>
349.109627278

> <Formula>
C16H19N3O4S

> <Composition>
C (55.00%), H (5.48%), N (12.03%), O (18.32%), S (9.18%)

> <Lipinski's rule of five [MProp:scalar:boolean]>
true

> <Atom count [MProp:scalar:integer]>
43

> <Heavy atom count [MProp:scalar:integer]>
24

> <Asymmetric atom count [MProp:scalar:integer]>
3

> <Rotatable bond count [MProp:scalar:integer]>
4

> <Ring count [MProp:scalar:integer]>
3

> <Aromatic ring count [MProp:scalar:integer]>
0

> <Hetero ring count [MProp:scalar:integer]>
2

> <FSP3 [MProp:scalar:double]>
0.44

> <Hydrogen bond donor count [MProp:scalar:integer]>
3

> <Hydrogen bond acceptor count [MProp:scalar:integer]>
5

> <Formal charge [MProp:scalar:integer]>
0

> <Topological polar surface area [A^2] [MProp:scalar:double]>
112.73

> <Polarizability [A^3] [MProp:scalar:double]>
34.88

> <Molar refractivity [cm^3/mol] [MProp:scalar:double]>
92.0

> <Van der Waals volume [A^3] [MProp:scalar:double]>
295.23

> <Minimum projection area [A^2] [MProp:scalar:double]>
55.87

> <Maximum projection area [A^2] [MProp:scalar:double]>
77.72

> <Minimum projection radius [A] [MProp:scalar:double]>
4.76

> <Maximum projection radius [A] [MProp:scalar:double]>
6.06

> <Van der Waals surface area [A^2] [MProp:scalar:double]>
425.79

> <Solvent accessible surface area [A^2] [MProp:scalar:double]>
461.5

> <Strongest acidic pKa [MProp:scalar:double]>
3.52

> <Strongest basic pKa [MProp:scalar:double]>
7.6

> <Isoelectric point [MProp:scalar:double]>
5.69

> <Intrinsic solubility [logS] [MProp:scalar:double]>
-4.11

> <Solubility category>
Moderate

> <logP [MProp:scalar:double]>
-2.45

> <logD_PH0 [MProp:scalar:double]>
-6.57

> <logD_PH1 [MProp:scalar:double]>
-4.75

> <logD_PH2 [MProp:scalar:double]>
-3.52

> <logD_PH3 [MProp:scalar:double]>
-2.93

> <logD_PH4 [MProp:scalar:double]>
-2.54

> <logD_PH5 [MProp:scalar:double]>
-2.45

> <logD_PH6 [MProp:scalar:double]>
-2.45

> <logD_PH7 [MProp:scalar:double]>
-2.53

> <logD_PH8 [MProp:scalar:double]>
-2.93

> <logD_PH9 [MProp:scalar:double]>
-3.49

> <logD_PH10 [MProp:scalar:double]>
-3.68

> <logD_PH11 [MProp:scalar:double]>
-3.74

> <logD_PH12 [MProp:scalar:double]>
-4.01

> <logD_PH13 [MProp:scalar:double]>
-4.87

> <logD_PH14 [MProp:scalar:double]>
-5.93

> <HLB [MProp:scalar:double]>
26.73

> <IUPAC name>
(6R,7R)-7-[(2R)-2-amino-2-(cyclohexa-1,4-dien-1-yl)acetamido]-3-methyl-8-oxo-5-thia-1-azabicyclo[4.2.0]oct-2-ene-2-carboxylic acid

> <SMILES>
CC1=C(N2[C@H](SC1)[C@H](NC(=O)[C@H](N)C1=CCC=CC1)C2=O)C(O)=O

> <InChI>
InChI=1S/C16H19N3O4S/c1-8-7-24-15-11(14(21)19(15)12(8)16(22)23)18-13(20)10(17)9-5-3-2-4-6-9/h2-3,6,10-11,15H,4-5,7,17H2,1H3,(H,18,20)(H,22,23)/t10-,11-,15-/m1/s1

> <InChIKey>
RDLPVSKMFDYCOR-UEKVPHQBSA-N

> <Traditional name>
cefradine

> <Common names>
CED; anspor; cefradina; cefradine; cefradinum; cephradin; cephradine; eskacef; sefril; velosef

> <CAS Registry Numbers(R)>
38821-53-3

$$$$
Cefepime
  Mrv2222 01232613222D          

 32 35  0  0  1  0            999 V2000
    3.7569    0.2223    0.0000 C   0  0  0  0  0  0  0  0  0  0  0  0
    3.4214    0.9760    0.0000 N   0  3  0  0  0  0  0  0  0  0  0  0
    2.9364    1.6434    0.0000 C   0  0  0  0  0  0  0  0  0  0  0  0
    3.4214    2.3109    0.0000 C   0  0  0  0  0  0  0  0  0  0  0  0
    4.2060    2.0559    0.0000 C   0  0  0  0  0  0  0  0  0  0  0  0
    4.2060    1.2309    0.0000 C   0  0  0  0  0  0  0  0  0  0  0  0
    2.7069    0.5635    0.0000 C   0  0  0  0  0  0  0  0  0  0  0  0
    1.9924    0.9760    0.0000 C   0  0  0  0  0  0  0  0  0  0  0  0
    1.2780    0.5635    0.0000 C   0  0  0  0  0  0  0  0  0  0  0  0
    0.5635    0.9760    0.0000 N   0  0  0  0  0  0  0  0  0  0  0  0
    0.5635    1.8010    0.0000 C   0  0  1  0  0  0  0  0  0  0  0  0
   -0.2615    1.8010    0.0000 C   0  0  1  0  0  0  0  0  0  0  0  0
   -0.2615    0.9760    0.0000 C   0  0  0  0  0  0  0  0  0  0  0  0
   -0.8449    0.3926    0.0000 O   0  0  0  0  0  0  0  0  0  0  0  0
   -0.8449    2.3843    0.0000 N   0  0  0  0  0  0  0  0  0  0  0  0
   -1.6418    2.1708    0.0000 C   0  0  0  0  0  0  0  0  0  0  0  0
   -1.8553    1.3739    0.0000 O   0  0  0  0  0  0  0  0  0  0  0  0
   -2.2251    2.7542    0.0000 C   0  0  0  0  0  0  0  0  0  0  0  0
   -2.0116    3.5511    0.0000 N   0  0  0  0  0  0  0  0  0  0  0  0
   -1.2147    3.7646    0.0000 O   0  0  0  0  0  0  0  0  0  0  0  0
   -1.0012    4.5615    0.0000 C   0  0  0  0  0  0  0  0  0  0  0  0
   -3.0220    2.5407    0.0000 C   0  0  0  0  0  0  0  0  0  0  0  0
   -3.3177    1.7705    0.0000 C   0  0  0  0  0  0  0  0  0  0  0  0
   -4.1415    1.8136    0.0000 S   0  0  0  0  0  0  0  0  0  0  0  0
   -4.3551    2.6105    0.0000 C   0  0  0  0  0  0  0  0  0  0  0  0
   -3.6632    3.0598    0.0000 N   0  0  0  0  0  0  0  0  0  0  0  0
   -5.1253    2.9062    0.0000 N   0  0  0  0  0  0  0  0  0  0  0  0
    1.2780    2.2135    0.0000 S   0  0  0  0  0  0  0  0  0  0  0  0
    1.9924    1.8010    0.0000 C   0  0  0  0  0  0  0  0  0  0  0  0
    1.2780   -0.2615    0.0000 C   0  0  0  0  0  0  0  0  0  0  0  0
    0.5635   -0.6740    0.0000 O   0  0  0  0  0  0  0  0  0  0  0  0
    1.9924   -0.6740    0.0000 O   0  0  0  0  0  0  0  0  0  0  0  0
  1  2  1  0  0  0  0
  2  3  1  0  0  0  0
  3  4  1  0  0  0  0
  4  5  1  0  0  0  0
  5  6  1  0  0  0  0
  2  6  1  0  0  0  0
  2  7  1  0  0  0  0
  7  8  1  0  0  0  0
  8  9  2  0  0  0  0
  9 10  1  0  0  0  0
 11 10  1  1  0  0  0
 11 12  1  0  0  0  0
 12 13  1  0  0  0  0
 10 13  1  0  0  0  0
 13 14  2  0  0  0  0
 12 15  1  1  0  0  0
 15 16  1  0  0  0  0
 16 17  2  0  0  0  0
 16 18  1  0  0  0  0
 18 19  2  0  0  0  0
 19 20  1  0  0  0  0
 20 21  1  0  0  0  0
 18 22  1  0  0  0  0
 22 23  2  0  0  0  0
 23 24  1  0  0  0  0
 24 25  1  0  0  0  0
 25 26  2  0  0  0  0
 22 26  1  0  0  0  0
 25 27  1  0  0  0  0
 11 28  1  0  0  0  0
 28 29  1  0  0  0  0
  8 29  1  0  0  0  0
  9 30  1  0  0  0  0
 30 31  2  0  0  0  0
 30 32  1  0  0  0  0
M  END
> <Molar mass [g/mol] [MProp:scalar:double]>
481.57

> <Exact mass [Da] [MProp:scalar:double]>
481.132236697

> <Formula>
C19H25N6O5S2

> <Composition>
C (47.39%), H (5.23%), N (17.45%), O (16.61%), S (13.31%)

> <Lipinski's rule of five [MProp:scalar:boolean]>
true

> <Atom count [MProp:scalar:integer]>
57

> <Heavy atom count [MProp:scalar:integer]>
32

> <Asymmetric atom count [MProp:scalar:integer]>
2

> <Rotatable bond count [MProp:scalar:integer]>
7

> <Ring count [MProp:scalar:integer]>
4

> <Aromatic ring count [MProp:scalar:integer]>
1

> <Hetero ring count [MProp:scalar:integer]>
4

> <FSP3 [MProp:scalar:double]>
0.53

> <Hydrogen bond donor count [MProp:scalar:integer]>
3

> <Hydrogen bond acceptor count [MProp:scalar:integer]>
8

> <Formal charge [MProp:scalar:integer]>
1

> <Topological polar surface area [A^2] [MProp:scalar:double]>
147.21

> <Polarizability [A^3] [MProp:scalar:double]>
45.39

> <Molar refractivity [cm^3/mol] [MProp:scalar:double]>
131.14

> <Van der Waals volume [A^3] [MProp:scalar:double]>
398.41

> <Minimum projection area [A^2] [MProp:scalar:double]>
58.83

> <Maximum projection area [A^2] [MProp:scalar:double]>
117.6

> <Minimum projection radius [A] [MProp:scalar:double]>
5.4

> <Maximum projection radius [A] [MProp:scalar:double]>
9.2

> <Van der Waals surface area [A^2] [MProp:scalar:double]>
610.38

> <Solvent accessible surface area [A^2] [MProp:scalar:double]>
609.67

> <Strongest acidic pKa [MProp:scalar:double]>
2.98

> <Strongest basic pKa [MProp:scalar:double]>
3.71

> <Isoelectric point [MProp:scalar:double]>
7.39

> <Intrinsic solubility [logS]>
N/A

> <Solubility category>
N/A

> <logP [MProp:scalar:double]>
-4.33

> <logD_PH0 [MProp:scalar:double]>
-7.83

> <logD_PH1 [MProp:scalar:double]>
-6.41

> <logD_PH2 [MProp:scalar:double]>
-5.41

> <logD_PH3 [MProp:scalar:double]>
-4.33

> <logD_PH4 [MProp:scalar:double]>
-3.62

> <logD_PH5 [MProp:scalar:double]>
-3.47

> <logD_PH6 [MProp:scalar:double]>
-3.45

> <logD_PH7 [MProp:scalar:double]>
-3.45

> <logD_PH8 [MProp:scalar:double]>
-3.45

> <logD_PH9 [MProp:scalar:double]>
-3.45

> <logD_PH10 [MProp:scalar:double]>
-3.48

> <logD_PH11 [MProp:scalar:double]>
-3.69

> <logD_PH12 [MProp:scalar:double]>
-4.62

> <logD_PH13 [MProp:scalar:double]>
-5.79

> <logD_PH14 [MProp:scalar:double]>
-6.75

> <HLB [MProp:scalar:double]>
33.01

> <IUPAC name>
1-{[(6R,7R)-7-[(2Z)-2-(2-amino-1,3-thiazol-4-yl)-2-(methoxyimino)acetamido]-2-carboxy-8-oxo-5-thia-1-azabicyclo[4.2.0]oct-2-en-3-yl]methyl}-1-methylpyrrolidin-1-ium

> <SMILES>
CO\N=C(/C(=O)N[C@H]1[C@H]2SCC(C[N+]3(C)CCCC3)=C(N2C1=O)C(O)=O)C1=CSC(N)=N1

> <InChI>
InChI=1S/C19H24N6O5S2/c1-25(5-3-4-6-25)7-10-8-31-17-13(16(27)24(17)14(10)18(28)29)22-15(26)12(23-30-2)11-9-32-19(20)21-11/h9,13,17H,3-8H2,1-2H3,(H3-,20,21,22,26,28,29)/p+1/b23-12-/t13-,17-/m1/s1

> <InChIKey>
HVFLCNVBZFFHBT-ZKDACBOMSA-O

> <Traditional name>
cefepime(1+)

> <Common names>
cefepime conjugate acid; cefepime(1+)

> <CAS Registry Numbers(R)>
N/A

$$$$
Cefpirome
  Mrv2222 01232613222D          

 35 39  0  0  1  0            999 V2000
   -0.9280    7.4156    0.0000 C   0  0  0  0  0  0  0  0  0  0  0  0
   -0.7145    6.6187    0.0000 O   0  0  0  0  0  0  0  0  0  0  0  0
   -1.2978    6.0353    0.0000 N   0  0  0  0  0  0  0  0  0  0  0  0
   -1.0843    5.2384    0.0000 C   0  0  0  0  0  0  0  0  0  0  0  0
   -1.6677    4.6550    0.0000 C   0  0  0  0  0  0  0  0  0  0  0  0
   -1.5386    3.8402    0.0000 C   0  0  0  0  0  0  0  0  0  0  0  0
   -2.2737    3.4657    0.0000 S   0  0  0  0  0  0  0  0  0  0  0  0
   -2.8570    4.0490    0.0000 C   0  0  0  0  0  0  0  0  0  0  0  0
   -2.4825    4.7841    0.0000 N   0  0  0  0  0  0  0  0  0  0  0  0
   -3.6719    3.9200    0.0000 N   0  0  0  0  0  0  0  0  0  0  0  0
   -0.2874    5.0249    0.0000 C   0  0  0  0  0  0  0  0  0  0  0  0
    0.2960    5.6082    0.0000 O   0  0  0  0  0  0  0  0  0  0  0  0
   -0.0739    4.2280    0.0000 N   0  0  0  0  0  0  0  0  0  0  0  0
    0.7230    4.0145    0.0000 C   0  0  1  0  0  0  0  0  0  0  0  0
    1.1355    3.3000    0.0000 C   0  0  2  0  0  0  0  0  0  0  0  0
    1.8500    3.7125    0.0000 N   0  0  0  0  0  0  0  0  0  0  0  0
    1.4375    4.4270    0.0000 C   0  0  0  0  0  0  0  0  0  0  0  0
    1.6510    5.2239    0.0000 O   0  0  0  0  0  0  0  0  0  0  0  0
    2.5645    3.3000    0.0000 C   0  0  0  0  0  0  0  0  0  0  0  0
    2.5645    2.4750    0.0000 C   0  0  0  0  0  0  0  0  0  0  0  0
    1.8500    2.0625    0.0000 C   0  0  0  0  0  0  0  0  0  0  0  0
    1.1355    2.4750    0.0000 S   0  0  0  0  0  0  0  0  0  0  0  0
    3.2789    2.0625    0.0000 C   0  0  0  0  0  0  0  0  0  0  0  0
    3.2789    1.2375    0.0000 N   0  3  0  0  0  0  0  0  0  0  0  0
    3.9934    0.8250    0.0000 C   0  0  0  0  0  0  0  0  0  0  0  0
    3.9934    0.0000    0.0000 C   0  0  0  0  0  0  0  0  0  0  0  0
    3.2789   -0.4125    0.0000 C   0  0  0  0  0  0  0  0  0  0  0  0
    2.5645    0.0000    0.0000 C   0  0  0  0  0  0  0  0  0  0  0  0
    2.5645    0.8250    0.0000 C   0  0  0  0  0  0  0  0  0  0  0  0
    1.7798    1.0799    0.0000 C   0  0  0  0  0  0  0  0  0  0  0  0
    1.2949    0.4125    0.0000 C   0  0  0  0  0  0  0  0  0  0  0  0
    1.7798   -0.2549    0.0000 C   0  0  0  0  0  0  0  0  0  0  0  0
    3.2789    3.7125    0.0000 C   0  0  0  0  0  0  0  0  0  0  0  0
    3.9934    3.3000    0.0000 O   0  0  0  0  0  0  0  0  0  0  0  0
    3.2789    4.5375    0.0000 O   0  0  0  0  0  0  0  0  0  0  0  0
  1  2  1  0  0  0  0
  2  3  1  0  0  0  0
  3  4  2  0  0  0  0
  4  5  1  0  0  0  0
  5  6  2  0  0  0  0
  6  7  1  0  0  0  0
  7  8  1  0  0  0  0
  8  9  2  0  0  0  0
  5  9  1  0  0  0  0
  8 10  1  0  0  0  0
  4 11  1  0  0  0  0
 11 12  2  0  0  0  0
 11 13  1  0  0  0  0
 14 13  1  6  0  0  0
 14 15  1  0  0  0  0
 15 16  1  6  0  0  0
 16 17  1  0  0  0  0
 14 17  1  0  0  0  0
 17 18  2  0  0  0  0
 16 19  1  0  0  0  0
 19 20  2  0  0  0  0
 20 21  1  0  0  0  0
 21 22  1  0  0  0  0
 15 22  1  0  0  0  0
 20 23  1  0  0  0  0
 23 24  1  0  0  0  0
 24 25  2  0  0  0  0
 25 26  1  0  0  0  0
 26 27  2  0  0  0  0
 27 28  1  0  0  0  0
 28 29  2  0  0  0  0
 24 29  1  0  0  0  0
 29 30  1  0  0  0  0
 30 31  1  0  0  0  0
 31 32  1  0  0  0  0
 28 32  1  0  0  0  0
 19 33  1  0  0  0  0
 33 34  2  0  0  0  0
 33 35  1  0  0  0  0
M  END
> <Molar mass [g/mol] [MProp:scalar:double]>
515.58

> <Exact mass [Da] [MProp:scalar:double]>
515.116586633

> <Formula>
C22H23N6O5S2

> <Composition>
C (51.25%), H (4.50%), N (16.30%), O (15.52%), S (12.44%)

> <Lipinski's rule of five [MProp:scalar:boolean]>
false

> <Atom count [MProp:scalar:integer]>
58

> <Heavy atom count [MProp:scalar:integer]>
35

> <Asymmetric atom count [MProp:scalar:integer]>
2

> <Rotatable bond count [MProp:scalar:integer]>
7

> <Ring count [MProp:scalar:integer]>
5

> <Aromatic ring count [MProp:scalar:integer]>
2

> <Hetero ring count [MProp:scalar:integer]>
4

> <FSP3 [MProp:scalar:double]>
0.36

> <Hydrogen bond donor count [MProp:scalar:integer]>
3

> <Hydrogen bond acceptor count [MProp:scalar:integer]>
8

> <Formal charge [MProp:scalar:integer]>
1

> <Topological polar surface area [A^2] [MProp:scalar:double]>
151.09

> <Polarizability [A^3] [MProp:scalar:double]>
48.99

> <Molar refractivity [cm^3/mol] [MProp:scalar:double]>
130.46

> <Van der Waals volume [A^3] [MProp:scalar:double]>
416.64

> <Minimum projection area [A^2] [MProp:scalar:double]>
78.37

> <Maximum projection area [A^2] [MProp:scalar:double]>
113.34

> <Minimum projection radius [A] [MProp:scalar:double]>
5.83

> <Maximum projection radius [A] [MProp:scalar:double]>
7.84

> <Van der Waals surface area [A^2] [MProp:scalar:double]>
626.73

> <Solvent accessible surface area [A^2] [MProp:scalar:double]>
683.71

> <Strongest acidic pKa [MProp:scalar:double]>
2.88

> <Strongest basic pKa [MProp:scalar:double]>
3.62

> <Isoelectric point [MProp:scalar:double]>
7.17

> <Intrinsic solubility [logS]>
N/A

> <Solubility category>
N/A

> <logP [MProp:scalar:double]>
-4.04

> <logD_PH0 [MProp:scalar:double]>
-7.04

> <logD_PH1 [MProp:scalar:double]>
-5.64

> <logD_PH2 [MProp:scalar:double]>
-4.74

> <logD_PH3 [MProp:scalar:double]>
-4.04

> <logD_PH4 [MProp:scalar:double]>
-3.72

> <logD_PH5 [MProp:scalar:double]>
-3.66

> <logD_PH6 [MProp:scalar:double]>
-3.65

> <logD_PH7 [MProp:scalar:double]>
-3.65

> <logD_PH8 [MProp:scalar:double]>
-3.65

> <logD_PH9 [MProp:scalar:double]>
-3.66

> <logD_PH10 [MProp:scalar:double]>
-3.71

> <logD_PH11 [MProp:scalar:double]>
-4.06

> <logD_PH12 [MProp:scalar:double]>
-4.98

> <logD_PH13 [MProp:scalar:double]>
-6.02

> <logD_PH14 [MProp:scalar:double]>
-6.96

> <HLB [MProp:scalar:double]>
23.16

> <IUPAC name>
1-{[(6R,7R)-7-[(2Z)-2-(2-amino-1,3-thiazol-4-yl)-2-(methoxyimino)acetamido]-2-carboxy-8-oxo-5-thia-1-azabicyclo[4.2.0]oct-2-en-3-yl]methyl}-5H,6H,7H-cyclopenta[b]pyridin-1-ium

> <SMILES>
CO\N=C(/C(=O)N[C@H]1[C@H]2SCC(C[N+]3=CC=CC4=C3CCC4)=C(N2C1=O)C(O)=O)C1=CSC(N)=N1

> <InChI>
InChI=1S/C22H22N6O5S2/c1-33-26-15(13-10-35-22(23)24-13)18(29)25-16-19(30)28-17(21(31)32)12(9-34-20(16)28)8-27-7-3-5-11-4-2-6-14(11)27/h3,5,7,10,16,20H,2,4,6,8-9H2,1H3,(H3-,23,24,25,29,31,32)/p+1/b26-15-/t16-,20-/m1/s1

> <InChIKey>
DKOQGJHPHLTOJR-WHRDSVKCSA-O

> <Traditional name>
1-{[(6R,7R)-7-[(2Z)-2-(2-amino-1,3-thiazol-4-yl)-2-(methoxyimino)acetamido]-2-carboxy-8-oxo-5-thia-1-azabicyclo[4.2.0]oct-2-en-3-yl]methyl}-5H,6H,7H-cyclopenta[b]pyridin-1-ium

> <Common names>
N/A

> <CAS Registry Numbers(R)>
N/A

$$$$
Ceftazidime
  Mrv2222 01232613222D          

 37 40  0  0  1  0            999 V2000
   -4.2460   -1.5021    0.0000 C   0  0  0  0  0  0  0  0  0  0  0  0
   -4.0324   -0.7052    0.0000 C   0  0  0  0  0  0  0  0  0  0  0  0
   -3.8189    0.0916    0.0000 C   0  0  0  0  0  0  0  0  0  0  0  0
   -4.8293   -0.4917    0.0000 C   0  0  0  0  0  0  0  0  0  0  0  0
   -5.4127   -1.0751    0.0000 O   0  0  0  0  0  0  0  0  0  0  0  0
   -5.0428    0.3052    0.0000 O   0  0  0  0  0  0  0  0  0  0  0  0
   -3.2355   -0.9188    0.0000 O   0  0  0  0  0  0  0  0  0  0  0  0
   -3.0220   -1.7157    0.0000 N   0  0  0  0  0  0  0  0  0  0  0  0
   -2.2251   -1.9292    0.0000 C   0  0  0  0  0  0  0  0  0  0  0  0
   -2.0116   -2.7261    0.0000 C   0  0  0  0  0  0  0  0  0  0  0  0
   -1.2414   -3.0217    0.0000 C   0  0  0  0  0  0  0  0  0  0  0  0
   -1.2846   -3.8456    0.0000 S   0  0  0  0  0  0  0  0  0  0  0  0
   -2.0815   -4.0591    0.0000 C   0  0  0  0  0  0  0  0  0  0  0  0
   -2.5308   -3.3672    0.0000 N   0  0  0  0  0  0  0  0  0  0  0  0
   -2.3771   -4.8293    0.0000 N   0  0  0  0  0  0  0  0  0  0  0  0
   -1.6418   -1.3458    0.0000 C   0  0  0  0  0  0  0  0  0  0  0  0
   -1.8553   -0.5489    0.0000 O   0  0  0  0  0  0  0  0  0  0  0  0
   -0.8449   -1.5593    0.0000 N   0  0  0  0  0  0  0  0  0  0  0  0
   -0.2615   -0.9760    0.0000 C   0  0  1  0  0  0  0  0  0  0  0  0
    0.5635   -0.9760    0.0000 C   0  0  2  0  0  0  0  0  0  0  0  0
    0.5635   -0.1510    0.0000 N   0  0  0  0  0  0  0  0  0  0  0  0
   -0.2615   -0.1510    0.0000 C   0  0  0  0  0  0  0  0  0  0  0  0
   -0.8449    0.4324    0.0000 O   0  0  0  0  0  0  0  0  0  0  0  0
    1.2780    0.2615    0.0000 C   0  0  0  0  0  0  0  0  0  0  0  0
    1.9924   -0.1510    0.0000 C   0  0  0  0  0  0  0  0  0  0  0  0
    1.9924   -0.9760    0.0000 C   0  0  0  0  0  0  0  0  0  0  0  0
    1.2780   -1.3885    0.0000 S   0  0  0  0  0  0  0  0  0  0  0  0
    2.7069    0.2615    0.0000 C   0  0  0  0  0  0  0  0  0  0  0  0
    3.4214   -0.1510    0.0000 N   0  3  0  0  0  0  0  0  0  0  0  0
    4.1358    0.2615    0.0000 C   0  0  0  0  0  0  0  0  0  0  0  0
    4.8503   -0.1510    0.0000 C   0  0  0  0  0  0  0  0  0  0  0  0
    4.8503   -0.9760    0.0000 C   0  0  0  0  0  0  0  0  0  0  0  0
    4.1358   -1.3885    0.0000 C   0  0  0  0  0  0  0  0  0  0  0  0
    3.4214   -0.9760    0.0000 C   0  0  0  0  0  0  0  0  0  0  0  0
    1.2780    1.0865    0.0000 C   0  0  0  0  0  0  0  0  0  0  0  0
    1.9924    1.4990    0.0000 O   0  0  0  0  0  0  0  0  0  0  0  0
    0.5635    1.4990    0.0000 O   0  0  0  0  0  0  0  0  0  0  0  0
  1  2  1  0  0  0  0
  2  3  1  0  0  0  0
  2  4  1  0  0  0  0
  4  5  2  0  0  0  0
  4  6  1  0  0  0  0
  2  7  1  0  0  0  0
  7  8  1  0  0  0  0
  8  9  2  0  0  0  0
  9 10  1  0  0  0  0
 10 11  2  0  0  0  0
 11 12  1  0  0  0  0
 12 13  1  0  0  0  0
 13 14  2  0  0  0  0
 10 14  1  0  0  0  0
 13 15  1  0  0  0  0
  9 16  1  0  0  0  0
 16 17  2  0  0  0  0
 16 18  1  0  0  0  0
 19 18  1  6  0  0  0
 19 20  1  0  0  0  0
 20 21  1  6  0  0  0
 21 22  1  0  0  0  0
 19 22  1  0  0  0  0
 22 23  2  0  0  0  0
 21 24  1  0  0  0  0
 24 25  2  0  0  0  0
 25 26  1  0  0  0  0
 26 27  1  0  0  0  0
 20 27  1  0  0  0  0
 25 28  1  0  0  0  0
 28 29  1  0  0  0  0
 29 30  2  0  0  0  0
 30 31  1  0  0  0  0
 31 32  2  0  0  0  0
 32 33  1  0  0  0  0
 33 34  2  0  0  0  0
 29 34  1  0  0  0  0
 24 35  1  0  0  0  0
 35 36  2  0  0  0  0
 35 37  1  0  0  0  0
M  END
> <Molar mass [g/mol] [MProp:scalar:double]>
547.58

> <Exact mass [Da] [MProp:scalar:double]>
547.106415873

> <Formula>
C22H23N6O7S2

> <Composition>
C (48.26%), H (4.23%), N (15.35%), O (20.45%), S (11.71%)

> <Lipinski's rule of five [MProp:scalar:boolean]>
false

> <Atom count [MProp:scalar:integer]>
60

> <Heavy atom count [MProp:scalar:integer]>
37

> <Asymmetric atom count [MProp:scalar:integer]>
2

> <Rotatable bond count [MProp:scalar:integer]>
9

> <Ring count [MProp:scalar:integer]>
4

> <Aromatic ring count [MProp:scalar:integer]>
2

> <Hetero ring count [MProp:scalar:integer]>
4

> <FSP3 [MProp:scalar:double]>
0.32

> <Hydrogen bond donor count [MProp:scalar:integer]>
4

> <Hydrogen bond acceptor count [MProp:scalar:integer]>
10

> <Formal charge [MProp:scalar:integer]>
1

> <Topological polar surface area [A^2] [MProp:scalar:double]>
188.39

> <Polarizability [A^3] [MProp:scalar:double]>
50.49

> <Molar refractivity [cm^3/mol] [MProp:scalar:double]>
133.04

> <Van der Waals volume [A^3] [MProp:scalar:double]>
439.97

> <Minimum projection area [A^2] [MProp:scalar:double]>
69.1

> <Maximum projection area [A^2] [MProp:scalar:double]>
123.28

> <Minimum projection radius [A] [MProp:scalar:double]>
5.81

> <Maximum projection radius [A] [MProp:scalar:double]>
8.39

> <Van der Waals surface area [A^2] [MProp:scalar:double]>
662.15

> <Solvent accessible surface area [A^2] [MProp:scalar:double]>
721.4

> <Strongest acidic pKa [MProp:scalar:double]>
2.62

> <Strongest basic pKa [MProp:scalar:double]>
4.05

> <Isoelectric point [MProp:scalar:double]>
3.66

> <Intrinsic solubility [logS]>
N/A

> <Solubility category>
N/A

> <logP [MProp:scalar:double]>
-4.18

> <logD_PH0 [MProp:scalar:double]>
-6.98

> <logD_PH1 [MProp:scalar:double]>
-5.59

> <logD_PH2 [MProp:scalar:double]>
-4.73

> <logD_PH3 [MProp:scalar:double]>
-4.18

> <logD_PH4 [MProp:scalar:double]>
-4.27

> <logD_PH5 [MProp:scalar:double]>
-5.0

> <logD_PH6 [MProp:scalar:double]>
-5.94

> <logD_PH7 [MProp:scalar:double]>
-6.73

> <logD_PH8 [MProp:scalar:double]>
-7.06

> <logD_PH9 [MProp:scalar:double]>
-7.12

> <logD_PH10 [MProp:scalar:double]>
-7.17

> <logD_PH11 [MProp:scalar:double]>
-7.49

> <logD_PH12 [MProp:scalar:double]>
-8.42

> <logD_PH13 [MProp:scalar:double]>
-9.48

> <logD_PH14 [MProp:scalar:double]>
-10.43

> <HLB [MProp:scalar:double]>
25.73

> <IUPAC name>
1-{[(6R,7R)-7-[(2Z)-2-(2-amino-1,3-thiazol-4-yl)-2-[(1-carboxy-1-methylethoxy)imino]acetamido]-2-carboxy-8-oxo-5-thia-1-azabicyclo[4.2.0]oct-2-en-3-yl]methyl}pyridin-1-ium

> <SMILES>
CC(C)(O\N=C(/C(=O)N[C@H]1[C@H]2SCC(C[N+]3=CC=CC=C3)=C(N2C1=O)C(O)=O)C1=CSC(N)=N1)C(O)=O

> <InChI>
InChI=1S/C22H22N6O7S2/c1-22(2,20(33)34)35-26-13(12-10-37-21(23)24-12)16(29)25-14-17(30)28-15(19(31)32)11(9-36-18(14)28)8-27-6-4-3-5-7-27/h3-7,10,14,18H,8-9H2,1-2H3,(H4-,23,24,25,29,31,32,33,34)/p+1/b26-13-/t14-,18-/m1/s1

> <InChIKey>
ORFOPKXBNMVMKC-DWVKKRMSSA-O

> <Traditional name>
1-{[(6R,7R)-7-[(2Z)-2-(2-amino-1,3-thiazol-4-yl)-2-[(1-carboxy-1-methylethoxy)imino]acetamido]-2-carboxy-8-oxo-5-thia-1-azabicyclo[4.2.0]oct-2-en-3-yl]methyl}pyridin-1-ium

> <Common names>
N/A

> <CAS Registry Numbers(R)>
N/A

$$$$
Ceftobiprole
  Mrv2222 01232613222D          

 36 40  0  0  1  0            999 V2000
    6.0996    1.7804    0.0000 C   0  0  0  0  0  0  0  0  0  0  0  0
    6.8533    1.4448    0.0000 C   0  0  0  0  0  0  0  0  0  0  0  0
    6.7670    0.6243    0.0000 N   0  0  0  0  0  0  0  0  0  0  0  0
    5.9601    0.4528    0.0000 C   0  0  0  0  0  0  0  0  0  0  0  0
    5.5476    1.1673    0.0000 C   0  0  2  0  0  0  0  0  0  0  0  0
    4.7271    1.2535    0.0000 N   0  0  0  0  0  0  0  0  0  0  0  0
    4.3146    1.9680    0.0000 C   0  0  0  0  0  0  0  0  0  0  0  0
    3.5076    1.7965    0.0000 C   0  0  0  0  0  0  0  0  0  0  0  0
    3.4214    0.9760    0.0000 C   0  0  0  0  0  0  0  0  0  0  0  0
    2.7069    0.5635    0.0000 C   0  0  0  0  0  0  0  0  0  0  0  0
    1.9924    0.9760    0.0000 C   0  0  0  0  0  0  0  0  0  0  0  0
    1.2780    0.5635    0.0000 C   0  0  0  0  0  0  0  0  0  0  0  0
    0.5635    0.9760    0.0000 N   0  0  0  0  0  0  0  0  0  0  0  0
    0.5635    1.8010    0.0000 C   0  0  1  0  0  0  0  0  0  0  0  0
   -0.2615    1.8010    0.0000 C   0  0  1  0  0  0  0  0  0  0  0  0
   -0.2615    0.9760    0.0000 C   0  0  0  0  0  0  0  0  0  0  0  0
   -0.8449    0.3926    0.0000 O   0  0  0  0  0  0  0  0  0  0  0  0
   -0.8449    2.3843    0.0000 N   0  0  0  0  0  0  0  0  0  0  0  0
   -1.6418    2.1708    0.0000 C   0  0  0  0  0  0  0  0  0  0  0  0
   -1.8553    1.3739    0.0000 O   0  0  0  0  0  0  0  0  0  0  0  0
   -2.2251    2.7542    0.0000 C   0  0  0  0  0  0  0  0  0  0  0  0
   -3.0220    2.5407    0.0000 N   0  0  0  0  0  0  0  0  0  0  0  0
   -3.2355    1.7438    0.0000 O   0  0  0  0  0  0  0  0  0  0  0  0
   -2.0116    3.5511    0.0000 C   0  0  0  0  0  0  0  0  0  0  0  0
   -2.5308    4.1922    0.0000 N   0  0  0  0  0  0  0  0  0  0  0  0
   -2.0815    4.8841    0.0000 S   0  0  0  0  0  0  0  0  0  0  0  0
   -1.2846    4.6706    0.0000 C   0  0  0  0  0  0  0  0  0  0  0  0
   -1.2414    3.8467    0.0000 N   0  0  0  0  0  0  0  0  0  0  0  0
   -0.6434    5.1898    0.0000 N   0  0  0  0  0  0  0  0  0  0  0  0
    1.2780    2.2135    0.0000 S   0  0  0  0  0  0  0  0  0  0  0  0
    1.9924    1.8010    0.0000 C   0  0  0  0  0  0  0  0  0  0  0  0
    1.2780   -0.2615    0.0000 C   0  0  0  0  0  0  0  0  0  0  0  0
    0.5635   -0.6740    0.0000 O   0  0  0  0  0  0  0  0  0  0  0  0
    1.9924   -0.6740    0.0000 O   0  0  0  0  0  0  0  0  0  0  0  0
    4.1750    0.6404    0.0000 C   0  0  0  0  0  0  0  0  0  0  0  0
    4.3466   -0.1665    0.0000 O   0  0  0  0  0  0  0  0  0  0  0  0
  1  2  1  0  0  0  0
  2  3  1  0  0  0  0
  3  4  1  0  0  0  0
  5  4  1  0  0  0  0
  5  1  1  0  0  0  0
  5  6  1  6  0  0  0
  6  7  1  0  0  0  0
  7  8  1  0  0  0  0
  8  9  1  0  0  0  0
  9 10  2  0  0  0  0
 10 11  1  0  0  0  0
 11 12  2  0  0  0  0
 12 13  1  0  0  0  0
 14 13  1  1  0  0  0
 14 15  1  0  0  0  0
 15 16  1  0  0  0  0
 13 16  1  0  0  0  0
 16 17  2  0  0  0  0
 15 18  1  1  0  0  0
 18 19  1  0  0  0  0
 19 20  2  0  0  0  0
 19 21  1  0  0  0  0
 21 22  2  0  0  0  0
 22 23  1  0  0  0  0
 21 24  1  0  0  0  0
 24 25  2  0  0  0  0
 25 26  1  0  0  0  0
 26 27  1  0  0  0  0
 27 28  2  0  0  0  0
 24 28  1  0  0  0  0
 27 29  1  0  0  0  0
 14 30  1  0  0  0  0
 30 31  1  0  0  0  0
 11 31  1  0  0  0  0
 12 32  1  0  0  0  0
 32 33  2  0  0  0  0
 32 34  1  0  0  0  0
  9 35  1  0  0  0  0
  6 35  1  0  0  0  0
 35 36  2  0  0  0  0
M  END
> <Molar mass [g/mol] [MProp:scalar:double]>
534.57

> <Exact mass [Da] [MProp:scalar:double]>
534.110372808

> <Formula>
C20H22N8O6S2

> <Composition>
C (44.94%), H (4.15%), N (20.96%), O (17.96%), S (11.99%)

> <Lipinski's rule of five [MProp:scalar:boolean]>
false

> <Atom count [MProp:scalar:integer]>
58

> <Heavy atom count [MProp:scalar:integer]>
36

> <Asymmetric atom count [MProp:scalar:integer]>
3

> <Rotatable bond count [MProp:scalar:integer]>
6

> <Ring count [MProp:scalar:integer]>
5

> <Aromatic ring count [MProp:scalar:integer]>
1

> <Hetero ring count [MProp:scalar:integer]>
5

> <FSP3 [MProp:scalar:double]>
0.45

> <Hydrogen bond donor count [MProp:scalar:integer]>
5

> <Hydrogen bond acceptor count [MProp:scalar:integer]>
11

> <Formal charge [MProp:scalar:integer]>
0

> <Topological polar surface area [A^2] [MProp:scalar:double]>
203.44

> <Polarizability [A^3] [MProp:scalar:double]>
48.65

> <Molar refractivity [cm^3/mol] [MProp:scalar:double]>
131.04

> <Van der Waals volume [A^3] [MProp:scalar:double]>
417.38

> <Minimum projection area [A^2] [MProp:scalar:double]>
62.31

> <Maximum projection area [A^2] [MProp:scalar:double]>
119.52

> <Minimum projection radius [A] [MProp:scalar:double]>
5.45

> <Maximum projection radius [A] [MProp:scalar:double]>
9.36

> <Van der Waals surface area [A^2] [MProp:scalar:double]>
608.26

> <Solvent accessible surface area [A^2] [MProp:scalar:double]>
576.44

> <Strongest acidic pKa [MProp:scalar:double]>
3.23

> <Strongest basic pKa [MProp:scalar:double]>
9.4

> <Isoelectric point [MProp:scalar:double]>
4.55

> <Intrinsic solubility [logS] [MProp:scalar:double]>
-3.83

> <Solubility category>
High

> <logP [MProp:scalar:double]>
-4.77

> <logD_PH0 [MProp:scalar:double]>
-8.61

> <logD_PH1 [MProp:scalar:double]>
-6.39

> <logD_PH2 [MProp:scalar:double]>
-5.49

> <logD_PH3 [MProp:scalar:double]>
-5.02

> <logD_PH4 [MProp:scalar:double]>
-4.77

> <logD_PH5 [MProp:scalar:double]>
-4.77

> <logD_PH6 [MProp:scalar:double]>
-5.07

> <logD_PH7 [MProp:scalar:double]>
-5.82

> <logD_PH8 [MProp:scalar:double]>
-6.62

> <logD_PH9 [MProp:scalar:double]>
-7.06

> <logD_PH10 [MProp:scalar:double]>
-7.53

> <logD_PH11 [MProp:scalar:double]>
-7.87

> <logD_PH12 [MProp:scalar:double]>
-8.04

> <logD_PH13 [MProp:scalar:double]>
-8.56

> <logD_PH14 [MProp:scalar:double]>
-9.45

> <HLB [MProp:scalar:double]>
32.93

> <IUPAC name>
(6R,7R)-7-[(2Z)-2-(5-amino-1,2,4-thiadiazol-3-yl)-2-(N-hydroxyimino)acetamido]-8-oxo-3-{[(3E,3'R)-2-oxo-[1,3'-bipyrrolidin]-3-ylidene]methyl}-5-thia-1-azabicyclo[4.2.0]oct-2-ene-2-carboxylic acid

> <SMILES>
NC1=NC(=NS1)C(=N\O)\C(=O)N[C@H]1[C@H]2SCC(\C=C3/CCN([C@@H]4CCNC4)C3=O)=C(N2C1=O)C(O)=O

> <InChI>
InChI=1S/C20H22N8O6S2/c21-20-24-14(26-36-20)11(25-34)15(29)23-12-17(31)28-13(19(32)33)9(7-35-18(12)28)5-8-2-4-27(16(8)30)10-1-3-22-6-10/h5,10,12,18,22,34H,1-4,6-7H2,(H,23,29)(H,32,33)(H2,21,24,26)/b8-5+,25-11-/t10-,12+,18+/m0/s1

> <InChIKey>
VOAZJEPQLGBXGO-SDAWRPRTSA-N

> <Traditional name>
ceftobiprole

> <Common names>
ceftobiprole

> <CAS Registry Numbers(R)>
209467-52-7

$$$$
Iclaprim
  Mrv2222 01232613222D          

 26 29  0  0  0  0            999 V2000
   -2.1434   -1.2375    0.0000 C   0  0  0  0  0  0  0  0  0  0  0  0
   -1.4289   -1.6500    0.0000 O   0  0  0  0  0  0  0  0  0  0  0  0
   -0.7145   -1.2375    0.0000 C   0  0  0  0  0  0  0  0  0  0  0  0
    0.0000   -1.6500    0.0000 C   0  0  0  0  0  0  0  0  0  0  0  0
    0.7145   -1.2375    0.0000 C   0  0  0  0  0  0  0  0  0  0  0  0
    0.7145   -0.4125    0.0000 C   0  0  0  0  0  0  0  0  0  0  0  0
    1.4289    0.0000    0.0000 C   0  0  0  0  0  0  0  0  0  0  0  0
    2.1434   -0.4125    0.0000 C   0  0  0  0  0  0  0  0  0  0  0  0
    2.1434   -1.2375    0.0000 C   0  0  0  0  0  0  0  0  0  0  0  0
    1.4289   -1.6500    0.0000 O   0  0  0  0  0  0  0  0  0  0  0  0
    2.8579   -1.6500    0.0000 C   0  0  0  0  0  0  0  0  0  0  0  0
    3.6829   -1.6500    0.0000 C   0  0  0  0  0  0  0  0  0  0  0  0
    3.2704   -2.3645    0.0000 C   0  0  0  0  0  0  0  0  0  0  0  0
    0.0000    0.0000    0.0000 C   0  0  0  0  0  0  0  0  0  0  0  0
   -0.7145   -0.4125    0.0000 C   0  0  0  0  0  0  0  0  0  0  0  0
    0.0000    0.8250    0.0000 C   0  0  0  0  0  0  0  0  0  0  0  0
    0.7145    1.2375    0.0000 C   0  0  0  0  0  0  0  0  0  0  0  0
    1.4289    0.8250    0.0000 C   0  0  0  0  0  0  0  0  0  0  0  0
    2.1434    1.2375    0.0000 N   0  0  0  0  0  0  0  0  0  0  0  0
    2.1434    2.0625    0.0000 C   0  0  0  0  0  0  0  0  0  0  0  0
    1.4289    2.4750    0.0000 N   0  0  0  0  0  0  0  0  0  0  0  0
    0.7145    2.0625    0.0000 C   0  0  0  0  0  0  0  0  0  0  0  0
    0.0000    2.4750    0.0000 N   0  0  0  0  0  0  0  0  0  0  0  0
    2.8579    2.4750    0.0000 N   0  0  0  0  0  0  0  0  0  0  0  0
    0.0000   -2.4750    0.0000 O   0  0  0  0  0  0  0  0  0  0  0  0
    0.7145   -2.8875    0.0000 C   0  0  0  0  0  0  0  0  0  0  0  0
  1  2  1  0  0  0  0
  2  3  1  0  0  0  0
  3  4  2  0  0  0  0
  4  5  1  0  0  0  0
  5  6  2  0  0  0  0
  6  7  1  0  0  0  0
  7  8  2  0  0  0  0
  8  9  1  0  0  0  0
  9 10  1  0  0  0  0
  5 10  1  0  0  0  0
  9 11  1  0  0  0  0
 11 12  1  0  0  0  0
 12 13  1  0  0  0  0
 11 13  1  0  0  0  0
  6 14  1  0  0  0  0
 14 15  2  0  0  0  0
  3 15  1  0  0  0  0
 14 16  1  0  0  0  0
 16 17  1  0  0  0  0
 17 18  2  0  0  0  0
 18 19  1  0  0  0  0
 19 20  2  0  0  0  0
 20 21  1  0  0  0  0
 21 22  2  0  0  0  0
 17 22  1  0  0  0  0
 22 23  1  0  0  0  0
 20 24  1  0  0  0  0
  4 25  1  0  0  0  0
 25 26  1  0  0  0  0
M  END
> <Molar mass [g/mol] [MProp:scalar:double]>
354.41

> <Exact mass [Da] [MProp:scalar:double]>
354.169190584

> <Formula>
C19H22N4O3

> <Composition>
C (64.39%), H (6.26%), N (15.81%), O (13.54%)

> <Lipinski's rule of five [MProp:scalar:boolean]>
true

> <Atom count [MProp:scalar:integer]>
48

> <Heavy atom count [MProp:scalar:integer]>
26

> <Asymmetric atom count [MProp:scalar:integer]>
1

> <Rotatable bond count [MProp:scalar:integer]>
5

> <Ring count [MProp:scalar:integer]>
4

> <Aromatic ring count [MProp:scalar:integer]>
2

> <Hetero ring count [MProp:scalar:integer]>
2

> <FSP3 [MProp:scalar:double]>
0.37

> <Hydrogen bond donor count [MProp:scalar:integer]>
2

> <Hydrogen bond acceptor count [MProp:scalar:integer]>
7

> <Formal charge [MProp:scalar:integer]>
0

> <Topological polar surface area [A^2] [MProp:scalar:double]>
105.51

> <Polarizability [A^3] [MProp:scalar:double]>
37.25

> <Molar refractivity [cm^3/mol] [MProp:scalar:double]>
101.99

> <Van der Waals volume [A^3] [MProp:scalar:double]>
315.68

> <Minimum projection area [A^2] [MProp:scalar:double]>
55.77

> <Maximum projection area [A^2] [MProp:scalar:double]>
102.33

> <Minimum projection radius [A] [MProp:scalar:double]>
5.75

> <Maximum projection radius [A] [MProp:scalar:double]>
7.46

> <Van der Waals surface area [A^2] [MProp:scalar:double]>
501.2

> <Solvent accessible surface area [A^2] [MProp:scalar:double]>
564.1

> <Strongest acidic pKa>
N/A

> <Strongest basic pKa [MProp:scalar:double]>
7.15

> <Isoelectric point>
N/A

> <Intrinsic solubility [logS] [MProp:scalar:double]>
-4.66

> <Solubility category>
Low

> <logP [MProp:scalar:double]>
2.49

> <logD_PH0 [MProp:scalar:double]>
0.67

> <logD_PH1 [MProp:scalar:double]>
0.96

> <logD_PH2 [MProp:scalar:double]>
1.01

> <logD_PH3 [MProp:scalar:double]>
1.01

> <logD_PH4 [MProp:scalar:double]>
1.02

> <logD_PH5 [MProp:scalar:double]>
1.09

> <logD_PH6 [MProp:scalar:double]>
1.47

> <logD_PH7 [MProp:scalar:double]>
2.12

> <logD_PH8 [MProp:scalar:double]>
2.43

> <logD_PH9 [MProp:scalar:double]>
2.48

> <logD_PH10 [MProp:scalar:double]>
2.48

> <logD_PH11 [MProp:scalar:double]>
2.49

> <logD_PH12 [MProp:scalar:double]>
2.49

> <logD_PH13 [MProp:scalar:double]>
2.49

> <logD_PH14 [MProp:scalar:double]>
2.49

> <HLB [MProp:scalar:double]>
7.93

> <IUPAC name>
5-[(2-cyclopropyl-7,8-dimethoxy-2H-chromen-5-yl)methyl]pyrimidine-2,4-diamine

> <SMILES>
COC1=C(OC)C2=C(C=CC(O2)C2CC2)C(CC2=CN=C(N)N=C2N)=C1

> <InChI>
InChI=1/C19H22N4O3/c1-24-15-8-11(7-12-9-22-19(21)23-18(12)20)13-5-6-14(10-3-4-10)26-16(13)17(15)25-2/h5-6,8-10,14H,3-4,7H2,1-2H3,(H4,20,21,22,23)

> <InChIKey>
HWJPWWYTGBZDEG-UHFFFAOYNA-N

> <Traditional name>
iclaprim

> <Common names>
iclaprim

> <CAS Registry Numbers(R)>
192314-93-5

$$$$
Trimethoprim
  Mrv2222 01232613222D          

 21 22  0  0  0  0            999 V2000
    1.4289    0.0000    0.0000 C   0  0  0  0  0  0  0  0  0  0  0  0
    2.1434   -0.4125    0.0000 O   0  0  0  0  0  0  0  0  0  0  0  0
    2.1434   -1.2375    0.0000 C   0  0  0  0  0  0  0  0  0  0  0  0
    2.8579   -1.6500    0.0000 C   0  0  0  0  0  0  0  0  0  0  0  0
    2.8579   -2.4750    0.0000 C   0  0  0  0  0  0  0  0  0  0  0  0
    2.1434   -2.8875    0.0000 C   0  0  0  0  0  0  0  0  0  0  0  0
    1.4289   -2.4750    0.0000 C   0  0  0  0  0  0  0  0  0  0  0  0
    1.4289   -1.6500    0.0000 C   0  0  0  0  0  0  0  0  0  0  0  0
    0.7145   -1.2375    0.0000 O   0  0  0  0  0  0  0  0  0  0  0  0
    0.7145   -0.4125    0.0000 C   0  0  0  0  0  0  0  0  0  0  0  0
    0.7145   -2.8875    0.0000 O   0  0  0  0  0  0  0  0  0  0  0  0
    0.0000   -2.4750    0.0000 C   0  0  0  0  0  0  0  0  0  0  0  0
    3.5724   -2.8875    0.0000 C   0  0  0  0  0  0  0  0  0  0  0  0
    3.5724   -3.7125    0.0000 C   0  0  0  0  0  0  0  0  0  0  0  0
    4.2868   -4.1250    0.0000 C   0  0  0  0  0  0  0  0  0  0  0  0
    4.2868   -4.9500    0.0000 N   0  0  0  0  0  0  0  0  0  0  0  0
    3.5724   -5.3625    0.0000 C   0  0  0  0  0  0  0  0  0  0  0  0
    2.8579   -4.9500    0.0000 N   0  0  0  0  0  0  0  0  0  0  0  0
    2.8579   -4.1250    0.0000 C   0  0  0  0  0  0  0  0  0  0  0  0
    2.1434   -3.7125    0.0000 N   0  0  0  0  0  0  0  0  0  0  0  0
    3.5724   -6.1875    0.0000 N   0  0  0  0  0  0  0  0  0  0  0  0
  1  2  1  0  0  0  0
  2  3  1  0  0  0  0
  3  4  2  0  0  0  0
  4  5  1  0  0  0  0
  5  6  2  0  0  0  0
  6  7  1  0  0  0  0
  7  8  2  0  0  0  0
  3  8  1  0  0  0  0
  8  9  1  0  0  0  0
  9 10  1  0  0  0  0
  7 11  1  0  0  0  0
 11 12  1  0  0  0  0
  5 13  1  0  0  0  0
 13 14  1  0  0  0  0
 14 15  2  0  0  0  0
 15 16  1  0  0  0  0
 16 17  2  0  0  0  0
 17 18  1  0  0  0  0
 18 19  2  0  0  0  0
 14 19  1  0  0  0  0
 19 20  1  0  0  0  0
 17 21  1  0  0  0  0
M  END
> <Molar mass [g/mol] [MProp:scalar:double]>
290.323

> <Exact mass [Da] [MProp:scalar:double]>
290.137890456

> <Formula>
C14H18N4O3

> <Composition>
C (57.92%), H (6.25%), N (19.30%), O (16.53%)

> <Lipinski's rule of five [MProp:scalar:boolean]>
true

> <Atom count [MProp:scalar:integer]>
39

> <Heavy atom count [MProp:scalar:integer]>
21

> <Asymmetric atom count [MProp:scalar:integer]>
0

> <Rotatable bond count [MProp:scalar:integer]>
5

> <Ring count [MProp:scalar:integer]>
2

> <Aromatic ring count [MProp:scalar:integer]>
2

> <Hetero ring count [MProp:scalar:integer]>
1

> <FSP3 [MProp:scalar:double]>
0.29

> <Hydrogen bond donor count [MProp:scalar:integer]>
2

> <Hydrogen bond acceptor count [MProp:scalar:integer]>
7

> <Formal charge [MProp:scalar:integer]>
0

> <Topological polar surface area [A^2] [MProp:scalar:double]>
105.51

> <Polarizability [A^3] [MProp:scalar:double]>
29.76

> <Molar refractivity [cm^3/mol] [MProp:scalar:double]>
81.51

> <Van der Waals volume [A^3] [MProp:scalar:double]>
261.31

> <Minimum projection area [A^2] [MProp:scalar:double]>
51.14

> <Maximum projection area [A^2] [MProp:scalar:double]>
81.1

> <Minimum projection radius [A] [MProp:scalar:double]>
4.97

> <Maximum projection radius [A] [MProp:scalar:double]>
6.98

> <Van der Waals surface area [A^2] [MProp:scalar:double]>
431.23

> <Solvent accessible surface area [A^2] [MProp:scalar:double]>
536.63

> <Strongest acidic pKa>
N/A

> <Strongest basic pKa [MProp:scalar:double]>
7.16

> <Isoelectric point>
N/A

> <Intrinsic solubility [logS] [MProp:scalar:double]>
-2.8

> <Solubility category>
High

> <logP [MProp:scalar:double]>
1.28

> <logD_PH0 [MProp:scalar:double]>
-0.53

> <logD_PH1 [MProp:scalar:double]>
-0.24

> <logD_PH2 [MProp:scalar:double]>
-0.19

> <logD_PH3 [MProp:scalar:double]>
-0.19

> <logD_PH4 [MProp:scalar:double]>
-0.18

> <logD_PH5 [MProp:scalar:double]>
-0.11

> <logD_PH6 [MProp:scalar:double]>
0.27

> <logD_PH7 [MProp:scalar:double]>
0.92

> <logD_PH8 [MProp:scalar:double]>
1.23

> <logD_PH9 [MProp:scalar:double]>
1.28

> <logD_PH10 [MProp:scalar:double]>
1.28

> <logD_PH11 [MProp:scalar:double]>
1.28

> <logD_PH12 [MProp:scalar:double]>
1.28

> <logD_PH13 [MProp:scalar:double]>
1.28

> <logD_PH14 [MProp:scalar:double]>
1.28

> <HLB [MProp:scalar:double]>
9.95

> <IUPAC name>
5-[(3,4,5-trimethoxyphenyl)methyl]pyrimidine-2,4-diamine

> <SMILES>
COC1=CC(CC2=CN=C(N)N=C2N)=CC(OC)=C1OC

> <InChI>
InChI=1S/C14H18N4O3/c1-19-10-5-8(6-11(20-2)12(10)21-3)4-9-7-17-14(16)18-13(9)15/h5-7H,4H2,1-3H3,(H4,15,16,17,18)

> <InChIKey>
IEDVJHCEMCRBQM-UHFFFAOYSA-N

> <Traditional name>
trimethoprim

> <Common names>
abacin; abaprim; alprim; apo-sulfatrim; bactin; bactramin; bactrim DS; bactrim pediatric; baktar; chemotrim; comox; cotrim; cotrim D.S.; drylin; eusaprim; fectrim; gantaprim; gantrim; idotrim; imexim; instalac; ipral; kepinol; laratrim; lidaprim; linaris; methoprim; microtrim; monoprim; monotrim; monotrimin; nopil; oraprim; priloprim; primosept; primsol; proloprim; septra; septra DS; septra grape; septrin; sigaprim; sulfamethoprim; sulfamethoprim-DS; sulfamethoxazole & trimethoprim; sulfatrim; sulfatrim pediatric; sulfatrim-DS; sulfatrim-SS; sulfotrim; sulmeprim; sulmeprim pediatric; sulprim; sumetrolim; supracombin; suprim; syraprim; teleprim; thiocuran; tiempe; tmp-ratiopharm; trigonyl; trimanyl; trimesulf; trimeth/sulfa; trimethioprim; trimethoprim; trimethopriom; trimetoprim; trimexazole; trimogal; trimopan; trimpex; trimpex 200; triprim; unitrim; uretrim; uro-septra; uroplus; uroplus DS; uroplus SS; wellcoprim; 甲氧苄啶

> <CAS Registry Numbers(R)>
738-70-5

$$$$
Nalidixicacid
  Mrv2222 01232613222D          

 17 18  0  0  0  0            999 V2000
    0.7145    1.2375    0.0000 C   0  0  0  0  0  0  0  0  0  0  0  0
    0.0000    0.8250    0.0000 C   0  0  0  0  0  0  0  0  0  0  0  0
    0.0000    0.0000    0.0000 N   0  0  0  0  0  0  0  0  0  0  0  0
   -0.7145   -0.4125    0.0000 C   0  0  0  0  0  0  0  0  0  0  0  0
   -0.7145   -1.2375    0.0000 C   0  0  0  0  0  0  0  0  0  0  0  0
    0.0000   -1.6500    0.0000 C   0  0  0  0  0  0  0  0  0  0  0  0
    0.0000   -2.4750    0.0000 O   0  0  0  0  0  0  0  0  0  0  0  0
    0.7145   -1.2375    0.0000 C   0  0  0  0  0  0  0  0  0  0  0  0
    0.7145   -0.4125    0.0000 C   0  0  0  0  0  0  0  0  0  0  0  0
    1.4289    0.0000    0.0000 N   0  0  0  0  0  0  0  0  0  0  0  0
    2.1434   -0.4125    0.0000 C   0  0  0  0  0  0  0  0  0  0  0  0
    2.1434   -1.2375    0.0000 C   0  0  0  0  0  0  0  0  0  0  0  0
    1.4289   -1.6500    0.0000 C   0  0  0  0  0  0  0  0  0  0  0  0
    2.8579    0.0000    0.0000 C   0  0  0  0  0  0  0  0  0  0  0  0
   -1.4289   -1.6500    0.0000 C   0  0  0  0  0  0  0  0  0  0  0  0
   -1.4289   -2.4750    0.0000 O   0  0  0  0  0  0  0  0  0  0  0  0
   -2.1434   -1.2375    0.0000 O   0  0  0  0  0  0  0  0  0  0  0  0
  1  2  1  0  0  0  0
  2  3  1  0  0  0  0
  3  4  1  0  0  0  0
  4  5  2  0  0  0  0
  5  6  1  0  0  0  0
  6  7  2  0  0  0  0
  6  8  1  0  0  0  0
  8  9  1  0  0  0  0
  3  9  1  0  0  0  0
  9 10  2  0  0  0  0
 10 11  1  0  0  0  0
 11 12  2  0  0  0  0
 12 13  1  0  0  0  0
  8 13  2  0  0  0  0
 11 14  1  0  0  0  0
  5 15  1  0  0  0  0
 15 16  2  0  0  0  0
 15 17  1  0  0  0  0
M  END
> <Molar mass [g/mol] [MProp:scalar:double]>
232.239

> <Exact mass [Da] [MProp:scalar:double]>
232.084792254

> <Formula>
C12H12N2O3

> <Composition>
C (62.06%), H (5.21%), N (12.06%), O (20.67%)

> <Lipinski's rule of five [MProp:scalar:boolean]>
true

> <Atom count [MProp:scalar:integer]>
29

> <Heavy atom count [MProp:scalar:integer]>
17

> <Asymmetric atom count [MProp:scalar:integer]>
0

> <Rotatable bond count [MProp:scalar:integer]>
2

> <Ring count [MProp:scalar:integer]>
2

> <Aromatic ring count [MProp:scalar:integer]>
2

> <Hetero ring count [MProp:scalar:integer]>
2

> <FSP3 [MProp:scalar:double]>
0.25

> <Hydrogen bond donor count [MProp:scalar:integer]>
1

> <Hydrogen bond acceptor count [MProp:scalar:integer]>
5

> <Formal charge [MProp:scalar:integer]>
0

> <Topological polar surface area [A^2] [MProp:scalar:double]>
70.5

> <Polarizability [A^3] [MProp:scalar:double]>
23.02

> <Molar refractivity [cm^3/mol] [MProp:scalar:double]>
62.82

> <Van der Waals volume [A^3] [MProp:scalar:double]>
203.62

> <Minimum projection area [A^2] [MProp:scalar:double]>
33.69

> <Maximum projection area [A^2] [MProp:scalar:double]>
74.76

> <Minimum projection radius [A] [MProp:scalar:double]>
5.16

> <Maximum projection radius [A] [MProp:scalar:double]>
6.35

> <Van der Waals surface area [A^2] [MProp:scalar:double]>
315.86

> <Solvent accessible surface area [A^2] [MProp:scalar:double]>
431.95

> <Strongest acidic pKa [MProp:scalar:double]>
6.53

> <Strongest basic pKa [MProp:scalar:double]>
4.7

> <Isoelectric point [MProp:scalar:double]>
6.03

> <Intrinsic solubility [logS] [MProp:scalar:double]>
-2.02

> <Solubility category>
High

> <logP [MProp:scalar:double]>
1.05

> <logD_PH0 [MProp:scalar:double]>
-0.72

> <logD_PH1 [MProp:scalar:double]>
-0.71

> <logD_PH2 [MProp:scalar:double]>
-0.65

> <logD_PH3 [MProp:scalar:double]>
-0.29

> <logD_PH4 [MProp:scalar:double]>
0.46

> <logD_PH5 [MProp:scalar:double]>
1.0

> <logD_PH6 [MProp:scalar:double]>
1.05

> <logD_PH7 [MProp:scalar:double]>
0.61

> <logD_PH8 [MProp:scalar:double]>
-0.26

> <logD_PH9 [MProp:scalar:double]>
-1.21

> <logD_PH10 [MProp:scalar:double]>
-1.97

> <logD_PH11 [MProp:scalar:double]>
-2.25

> <logD_PH12 [MProp:scalar:double]>
-2.29

> <logD_PH13 [MProp:scalar:double]>
-2.29

> <logD_PH14 [MProp:scalar:double]>
-2.29

> <HLB [MProp:scalar:double]>
8.67

> <IUPAC name>
1-ethyl-7-methyl-4-oxo-1,4-dihydro-1,8-naphthyridine-3-carboxylic acid

> <SMILES>
CCN1C=C(C(O)=O)C(=O)C2=CC=C(C)N=C12

> <InChI>
InChI=1S/C12H12N2O3/c1-3-14-6-9(12(16)17)10(15)8-5-4-7(2)13-11(8)14/h4-6H,3H2,1-2H3,(H,16,17)

> <InChIKey>
MHWLWQUZZRMNGJ-UHFFFAOYSA-N

> <Traditional name>
nalidixic acid

> <Common names>
NegGram; acid, nalidixic; acide nalidixico; acide nalidixique; acido nalidissico; acido nalidixico; acidum nalidixicum; anhydrous sodium nalidixic acid; betaxina; cybis; dixiben; dixinal; eucistin; innoxalon; jicsron; kusnarin; monohydrate sodium nalidixic acid; naladixic acid; naldixic acid; nalidic acid; nalidicron; nalidixan; nalidixic acid; nalidixic acid (product); nalidixic acid (substance); nalidixic acid USP27; nalidixic acid preparation; nalidixin; nalidixinic acid; nalitucsan; nalix; nalurin; narigix; naxuril; negram; nevigramon; nicelate; nogram; poleon; sicmylon; sodium nalidixic acid, anhydrous; sodium nalidixic acid, monohydrate; sodium, nalidixate; specifen; specifin; unaserus; uralgin; uriben; uriclar; urisal; urodixin; uroman; uroneg; uronidix; uropan; wintomylon; wintron

> <CAS Registry Numbers(R)>
389-08-2

$$$$
Delafloxacin
  Mrv2222 01232613222D          

 30 33  0  0  0  0            999 V2000
   -2.2258   -0.2135    0.0000 C    0  0  0  0  0  0  0  0  0  0  0  0
   -2.4394    0.5834    0.0000 C    0  0  0  0  0  0  0  0  0  0  0  0
   -1.6425    0.7969    0.0000 C    0  0  0  0  0  0  0  0  0  0  0  0
   -1.4289    0.0000    0.0000 N    0  0  0  0  0  0  0  0  0  0  0  0
   -0.7145   -0.4125    0.0000 C    0  0  0  0  0  0  0  0  0  0  0  0
   -0.7145   -1.2375    0.0000 C    0  0  0  0  0  0  0  0  0  0  0  0
    0.0000   -1.6500    0.0000 C    0  0  0  0  0  0  0  0  0  0  0  0
    0.7145   -1.2375    0.0000 C    0  0  0  0  0  0  0  0  0  0  0  0
    0.7145   -0.4125    0.0000 C    0  0  0  0  0  0  0  0  0  0  0  0
    0.0000    0.0000    0.0000 C    0  0  0  0  0  0  0  0  0  0  0  0
    0.0000    0.8250    0.0000 Cl   0  0  0  0  0  0  0  0  0  0  0  0
    1.4289    0.0000    0.0000 N    0  0  0  0  0  0  0  0  0  0  0  0
    2.1434   -0.4125    0.0000 C    0  0  0  0  0  0  0  0  0  0  0  0
    2.1434   -1.2375    0.0000 C    0  0  0  0  0  0  0  0  0  0  0  0
    1.4289   -1.6500    0.0000 C    0  0  0  0  0  0  0  0  0  0  0  0
    1.4289   -2.4750    0.0000 O    0  0  0  0  0  0  0  0  0  0  0  0
    2.8579   -1.6500    0.0000 C    0  0  0  0  0  0  0  0  0  0  0  0
    2.8579   -2.4750    0.0000 O    0  0  0  0  0  0  0  0  0  0  0  0
    3.5724   -1.2375    0.0000 O    0  0  0  0  0  0  0  0  0  0  0  0
    1.4289    0.8250    0.0000 C    0  0  0  0  0  0  0  0  0  0  0  0
    2.1434    1.2375    0.0000 C    0  0  0  0  0  0  0  0  0  0  0  0
    2.1434    2.0625    0.0000 C    0  0  0  0  0  0  0  0  0  0  0  0
    1.4289    2.4750    0.0000 C    0  0  0  0  0  0  0  0  0  0  0  0
    0.7145    2.0625    0.0000 C    0  0  0  0  0  0  0  0  0  0  0  0
    0.7145    1.2375    0.0000 N    0  0  0  0  0  0  0  0  0  0  0  0
    0.0000    2.4750    0.0000 N    0  0  0  0  0  0  0  0  0  0  0  0
    1.4289    3.3000    0.0000 F    0  0  0  0  0  0  0  0  0  0  0  0
    2.8579    0.8250    0.0000 F    0  0  0  0  0  0  0  0  0  0  0  0
   -1.4289   -1.6500    0.0000 F    0  0  0  0  0  0  0  0  0  0  0  0
   -3.1538    0.9959    0.0000 O    0  0  0  0  0  0  0  0  0  0  0  0
  1  2  1  0  0  0  0
  2  3  1  0  0  0  0
  3  4  1  0  0  0  0
  1  4  1  0  0  0  0
  4  5  1  0  0  0  0
  5  6  2  0  0  0  0
  6  7  1  0  0  0  0
  7  8  2  0  0  0  0
  8  9  1  0  0  0  0
  9 10  2  0  0  0  0
  5 10  1  0  0  0  0
 10 11  1  0  0  0  0
  9 12  1  0  0  0  0
 12 13  1  0  0  0  0
 13 14  2  0  0  0  0
 14 15  1  0  0  0  0
  8 15  1  0  0  0  0
 15 16  2  0  0  0  0
 14 17  1  0  0  0  0
 17 18  2  0  0  0  0
 17 19  1  0  0  0  0
 12 20  1  0  0  0  0
 20 21  2  0  0  0  0
 21 22  1  0  0  0  0
 22 23  2  0  0  0  0
 23 24  1  0  0  0  0
 24 25  2  0  0  0  0
 20 25  1  0  0  0  0
 24 26  1  0  0  0  0
 23 27  1  0  0  0  0
 21 28  1  0  0  0  0
  6 29  1  0  0  0  0
  2 30  1  0  0  0  0
M  END
> <Molar mass [g/mol] [MProp:scalar:double]>
440.76

> <Exact mass [Da] [MProp:scalar:double]>
440.0499171

> <Formula>
C18H12ClF3N4O4

> <Composition>
C (49.05%), H (2.74%), Cl (8.04%), F (12.93%), N (12.71%), O (14.52%)

> <Lipinski's rule of five [MProp:scalar:boolean]>
true

> <Atom count [MProp:scalar:integer]>
42

> <Heavy atom count [MProp:scalar:integer]>
30

> <Asymmetric atom count [MProp:scalar:integer]>
0

> <Rotatable bond count [MProp:scalar:integer]>
3

> <Ring count [MProp:scalar:integer]>
4

> <Aromatic ring count [MProp:scalar:integer]>
3

> <Hetero ring count [MProp:scalar:integer]>
3

> <FSP3 [MProp:scalar:double]>
0.17

> <Hydrogen bond donor count [MProp:scalar:integer]>
3

> <Hydrogen bond acceptor count [MProp:scalar:integer]>
8

> <Formal charge [MProp:scalar:integer]>
0

> <Topological polar surface area [A^2] [MProp:scalar:double]>
119.99

> <Polarizability [A^3] [MProp:scalar:double]>
36.25

> <Molar refractivity [cm^3/mol] [MProp:scalar:double]>
101.33

> <Van der Waals volume [A^3] [MProp:scalar:double]>
323.51

> <Minimum projection area [A^2] [MProp:scalar:double]>
53.93

> <Maximum projection area [A^2] [MProp:scalar:double]>
108.42

> <Minimum projection radius [A] [MProp:scalar:double]>
6.32

> <Maximum projection radius [A] [MProp:scalar:double]>
7.7

> <Van der Waals surface area [A^2] [MProp:scalar:double]>
475.28

> <Solvent accessible surface area [A^2] [MProp:scalar:double]>
548.04

> <Strongest acidic pKa [MProp:scalar:double]>
6.22

> <Strongest basic pKa [MProp:scalar:double]>
-1.33

> <Isoelectric point [MProp:scalar:double]>
2.95

> <Intrinsic solubility [logS] [MProp:scalar:double]>
-5.43

> <Solubility category>
Low

> <logP [MProp:scalar:double]>
2.56

> <logD_PH0 [MProp:scalar:double]>
2.54

> <logD_PH1 [MProp:scalar:double]>
2.56

> <logD_PH2 [MProp:scalar:double]>
2.56

> <logD_PH3 [MProp:scalar:double]>
2.56

> <logD_PH4 [MProp:scalar:double]>
2.56

> <logD_PH5 [MProp:scalar:double]>
2.53

> <logD_PH6 [MProp:scalar:double]>
2.35

> <logD_PH7 [MProp:scalar:double]>
1.71

> <logD_PH8 [MProp:scalar:double]>
0.78

> <logD_PH9 [MProp:scalar:double]>
-0.15

> <logD_PH10 [MProp:scalar:double]>
-0.78

> <logD_PH11 [MProp:scalar:double]>
-0.95

> <logD_PH12 [MProp:scalar:double]>
-0.97

> <logD_PH13 [MProp:scalar:double]>
-0.98

> <logD_PH14 [MProp:scalar:double]>
-1.04

> <HLB [MProp:scalar:double]>
8.97

> <IUPAC name>
1-(6-amino-3,5-difluoropyridin-2-yl)-8-chloro-6-fluoro-7-(3-hydroxyazetidin-1-yl)-4-oxo-1,4-dihydroquinoline-3-carboxylic acid

> <SMILES>
NC1=NC(N2C=C(C(O)=O)C(=O)C3=CC(F)=C(N4CC(O)C4)C(Cl)=C23)=C(F)C=C1F

> <InChI>
InChI=1S/C18H12ClF3N4O4/c19-12-13-7(1-9(20)14(12)25-3-6(27)4-25)15(28)8(18(29)30)5-26(13)17-11(22)2-10(21)16(23)24-17/h1-2,5-6,27H,3-4H2,(H2,23,24)(H,29,30)

> <InChIKey>
DYDCPNMLZGFQTM-UHFFFAOYSA-N

> <Traditional name>
delafloxacin

> <Common names>
delafloxacin

> <CAS Registry Numbers(R)>
189279-58-1

$$$$
Ciprofloxacin
  Mrv2222 01232613222D          

 24 27  0  0  0  0            999 V2000
    1.8414   -3.1895    0.0000 C   0  0  0  0  0  0  0  0  0  0  0  0
    1.0164   -3.1895    0.0000 C   0  0  0  0  0  0  0  0  0  0  0  0
    1.4289   -2.4750    0.0000 C   0  0  0  0  0  0  0  0  0  0  0  0
    1.4289   -1.6500    0.0000 N   0  0  0  0  0  0  0  0  0  0  0  0
    0.7145   -1.2375    0.0000 C   0  0  0  0  0  0  0  0  0  0  0  0
    0.7145   -0.4125    0.0000 C   0  0  0  0  0  0  0  0  0  0  0  0
    1.4289    0.0000    0.0000 C   0  0  0  0  0  0  0  0  0  0  0  0
    1.4289    0.8250    0.0000 O   0  0  0  0  0  0  0  0  0  0  0  0
    2.1434   -0.4125    0.0000 C   0  0  0  0  0  0  0  0  0  0  0  0
    2.8579    0.0000    0.0000 C   0  0  0  0  0  0  0  0  0  0  0  0
    3.5724   -0.4125    0.0000 C   0  0  0  0  0  0  0  0  0  0  0  0
    3.5724   -1.2375    0.0000 C   0  0  0  0  0  0  0  0  0  0  0  0
    2.8579   -1.6500    0.0000 C   0  0  0  0  0  0  0  0  0  0  0  0
    2.1434   -1.2375    0.0000 C   0  0  0  0  0  0  0  0  0  0  0  0
    4.2868   -1.6500    0.0000 N   0  0  0  0  0  0  0  0  0  0  0  0
    5.0013   -1.2375    0.0000 C   0  0  0  0  0  0  0  0  0  0  0  0
    5.7158   -1.6500    0.0000 C   0  0  0  0  0  0  0  0  0  0  0  0
    5.7158   -2.4750    0.0000 N   0  0  0  0  0  0  0  0  0  0  0  0
    5.0013   -2.8875    0.0000 C   0  0  0  0  0  0  0  0  0  0  0  0
    4.2868   -2.4750    0.0000 C   0  0  0  0  0  0  0  0  0  0  0  0
    4.2868    0.0000    0.0000 F   0  0  0  0  0  0  0  0  0  0  0  0
    0.0000    0.0000    0.0000 C   0  0  0  0  0  0  0  0  0  0  0  0
   -0.7145   -0.4125    0.0000 O   0  0  0  0  0  0  0  0  0  0  0  0
    0.0000    0.8250    0.0000 O   0  0  0  0  0  0  0  0  0  0  0  0
  1  2  1  0  0  0  0
  2  3  1  0  0  0  0
  1  3  1  0  0  0  0
  3  4  1  0  0  0  0
  4  5  1  0  0  0  0
  5  6  2  0  0  0  0
  6  7  1  0  0  0  0
  7  8  2  0  0  0  0
  7  9  1  0  0  0  0
  9 10  2  0  0  0  0
 10 11  1  0  0  0  0
 11 12  2  0  0  0  0
 12 13  1  0  0  0  0
 13 14  2  0  0  0  0
  9 14  1  0  0  0  0
  4 14  1  0  0  0  0
 12 15  1  0  0  0  0
 15 16  1  0  0  0  0
 16 17  1  0  0  0  0
 17 18  1  0  0  0  0
 18 19  1  0  0  0  0
 19 20  1  0  0  0  0
 15 20  1  0  0  0  0
 11 21  1  0  0  0  0
  6 22  1  0  0  0  0
 22 23  2  0  0  0  0
 22 24  1  0  0  0  0
M  END
> <Molar mass [g/mol] [MProp:scalar:double]>
331.347

> <Exact mass [Da] [MProp:scalar:double]>
331.133219615

> <Formula>
C17H18FN3O3

> <Composition>
C (61.62%), H (5.48%), F (5.73%), N (12.68%), O (14.49%)

> <Lipinski's rule of five [MProp:scalar:boolean]>
true

> <Atom count [MProp:scalar:integer]>
42

> <Heavy atom count [MProp:scalar:integer]>
24

> <Asymmetric atom count [MProp:scalar:integer]>
0

> <Rotatable bond count [MProp:scalar:integer]>
3

> <Ring count [MProp:scalar:integer]>
4

> <Aromatic ring count [MProp:scalar:integer]>
2

> <Hetero ring count [MProp:scalar:integer]>
2

> <FSP3 [MProp:scalar:double]>
0.41

> <Hydrogen bond donor count [MProp:scalar:integer]>
2

> <Hydrogen bond acceptor count [MProp:scalar:integer]>
6

> <Formal charge [MProp:scalar:integer]>
0

> <Topological polar surface area [A^2] [MProp:scalar:double]>
72.88

> <Polarizability [A^3] [MProp:scalar:double]>
32.27

> <Molar refractivity [cm^3/mol] [MProp:scalar:double]>
87.94

> <Van der Waals volume [A^3] [MProp:scalar:double]>
282.81

> <Minimum projection area [A^2] [MProp:scalar:double]>
43.25

> <Maximum projection area [A^2] [MProp:scalar:double]>
97.73

> <Minimum projection radius [A] [MProp:scalar:double]>
5.02

> <Maximum projection radius [A] [MProp:scalar:double]>
7.53

> <Van der Waals surface area [A^2] [MProp:scalar:double]>
440.5

> <Solvent accessible surface area [A^2] [MProp:scalar:double]>
476.26

> <Strongest acidic pKa [MProp:scalar:double]>
5.96

> <Strongest basic pKa [MProp:scalar:double]>
8.69

> <Isoelectric point [MProp:scalar:double]>
7.47

> <Intrinsic solubility [logS] [MProp:scalar:double]>
-2.31

> <Solubility category>
High

> <logP [MProp:scalar:double]>
-0.77

> <logD_PH0 [MProp:scalar:double]>
-1.89

> <logD_PH1 [MProp:scalar:double]>
-1.71

> <logD_PH2 [MProp:scalar:double]>
-1.69

> <logD_PH3 [MProp:scalar:double]>
-1.68

> <logD_PH4 [MProp:scalar:double]>
-1.65

> <logD_PH5 [MProp:scalar:double]>
-1.43

> <logD_PH6 [MProp:scalar:double]>
-0.97

> <logD_PH7 [MProp:scalar:double]>
-0.77

> <logD_PH8 [MProp:scalar:double]>
-0.81

> <logD_PH9 [MProp:scalar:double]>
-1.16

> <logD_PH10 [MProp:scalar:double]>
-1.73

> <logD_PH11 [MProp:scalar:double]>
-1.94

> <logD_PH12 [MProp:scalar:double]>
-1.97

> <logD_PH13 [MProp:scalar:double]>
-1.98

> <logD_PH14 [MProp:scalar:double]>
-1.98

> <HLB [MProp:scalar:double]>
13.42

> <IUPAC name>
1-cyclopropyl-6-fluoro-4-oxo-7-(piperazin-1-yl)-1,4-dihydroquinoline-3-carboxylic acid

> <SMILES>
OC(=O)C1=CN(C2CC2)C2=CC(N3CCNCC3)=C(F)C=C2C1=O

> <InChI>
InChI=1S/C17H18FN3O3/c18-13-7-11-14(8-15(13)20-5-3-19-4-6-20)21(10-1-2-10)9-12(16(11)22)17(23)24/h7-10,19H,1-6H2,(H,23,24)

> <InChIKey>
MYSWGUAQZAJSOK-UHFFFAOYSA-N

> <Traditional name>
ciprofloxacin

> <Common names>
CPFX; Eni; Unex; alcon cilox; bacquinor; baflox; baycip; bernoflox; bi-cipro; ciflox; cifloxin; cilab; ciloxan; ciplus; ciprecu; ciprinol; cipro; cipro I.V.; cipro XL; cipro XR; ciprobay; ciprobay uro; ciprocinol; ciprodar; ciproflox; ciprofloxacin; ciprofloxacin (product); ciprofloxacin (substance); ciprofloxacin ophthalmic preparation; ciprofloxacin ophthalmic preparation (product); ciprofloxacin preparation; ciprofloxacin product; ciprofloxacina; ciprofloxacine; ciprofloxacino; ciprofloxacinum; ciprogis; ciprolin; ciprolon; cipromycin; ciproquinol; ciprowin; ciproxan; ciproxin; ciproxina; ciproxine; ciriax; citopcin; cixan; corsacin; cycin; fimoflox; flociprin; ipiflox; italnik; loxan; ocuflox; probiox; proflaxin; proflox; proksi 250; proksi 500; proquin XR; quinolid; quintor; rancif; roxytal; septicide; sophixin ofteno; spitacin; superocin; velomonit; zumaflox; 环丙沙星

> <CAS Registry Numbers(R)>
85721-33-1

$$$$
Clinafloxacin
  Mrv2222 01232613222D          

 25 28  0  0  0  0            999 V2000
    1.8414   -3.1895    0.0000 C    0  0  0  0  0  0  0  0  0  0  0  0
    1.0164   -3.1895    0.0000 C    0  0  0  0  0  0  0  0  0  0  0  0
    1.4289   -2.4750    0.0000 C    0  0  0  0  0  0  0  0  0  0  0  0
    1.4289   -1.6500    0.0000 N    0  0  0  0  0  0  0  0  0  0  0  0
    0.7145   -1.2375    0.0000 C    0  0  0  0  0  0  0  0  0  0  0  0
    0.7145   -0.4125    0.0000 C    0  0  0  0  0  0  0  0  0  0  0  0
    1.4289    0.0000    0.0000 C    0  0  0  0  0  0  0  0  0  0  0  0
    1.4289    0.8250    0.0000 O    0  0  0  0  0  0  0  0  0  0  0  0
    2.1434   -0.4125    0.0000 C    0  0  0  0  0  0  0  0  0  0  0  0
    2.8579    0.0000    0.0000 C    0  0  0  0  0  0  0  0  0  0  0  0
    3.5724   -0.4125    0.0000 C    0  0  0  0  0  0  0  0  0  0  0  0
    3.5724   -1.2375    0.0000 C    0  0  0  0  0  0  0  0  0  0  0  0
    2.8579   -1.6500    0.0000 C    0  0  0  0  0  0  0  0  0  0  0  0
    2.1434   -1.2375    0.0000 C    0  0  0  0  0  0  0  0  0  0  0  0
    2.8579   -2.4750    0.0000 Cl   0  0  0  0  0  0  0  0  0  0  0  0
    4.2868   -1.6500    0.0000 N    0  0  0  0  0  0  0  0  0  0  0  0
    5.0405   -1.3144    0.0000 C    0  0  0  0  0  0  0  0  0  0  0  0
    5.5925   -1.9275    0.0000 C    0  0  0  0  0  0  0  0  0  0  0  0
    5.1800   -2.6420    0.0000 C    0  0  0  0  0  0  0  0  0  0  0  0
    4.3731   -2.4705    0.0000 C    0  0  0  0  0  0  0  0  0  0  0  0
    5.5156   -3.3957    0.0000 N    0  0  0  0  0  0  0  0  0  0  0  0
    4.2868    0.0000    0.0000 F    0  0  0  0  0  0  0  0  0  0  0  0
    0.0000    0.0000    0.0000 C    0  0  0  0  0  0  0  0  0  0  0  0
   -0.7145   -0.4125    0.0000 O    0  0  0  0  0  0  0  0  0  0  0  0
    0.0000    0.8250    0.0000 O    0  0  0  0  0  0  0  0  0  0  0  0
  1  2  1  0  0  0  0
  2  3  1  0  0  0  0
  1  3  1  0  0  0  0
  3  4  1  0  0  0  0
  4  5  1  0  0  0  0
  5  6  2  0  0  0  0
  6  7  1  0  0  0  0
  7  8  2  0  0  0  0
  7  9  1  0  0  0  0
  9 10  2  0  0  0  0
 10 11  1  0  0  0  0
 11 12  2  0  0  0  0
 12 13  1  0  0  0  0
 13 14  2  0  0  0  0
  9 14  1  0  0  0  0
  4 14  1  0  0  0  0
 13 15  1  0  0  0  0
 12 16  1  0  0  0  0
 16 17  1  0  0  0  0
 17 18  1  0  0  0  0
 18 19  1  0  0  0  0
 19 20  1  0  0  0  0
 16 20  1  0  0  0  0
 19 21  1  0  0  0  0
 11 22  1  0  0  0  0
  6 23  1  0  0  0  0
 23 24  2  0  0  0  0
 23 25  1  0  0  0  0
M  END
> <Molar mass [g/mol] [MProp:scalar:double]>
365.79

> <Exact mass [Da] [MProp:scalar:double]>
365.0942473

> <Formula>
C17H17ClFN3O3

> <Composition>
C (55.82%), H (4.68%), Cl (9.69%), F (5.19%), N (11.49%), O (13.12%)

> <Lipinski's rule of five [MProp:scalar:boolean]>
true

> <Atom count [MProp:scalar:integer]>
42

> <Heavy atom count [MProp:scalar:integer]>
25

> <Asymmetric atom count [MProp:scalar:integer]>
1

> <Rotatable bond count [MProp:scalar:integer]>
3

> <Ring count [MProp:scalar:integer]>
4

> <Aromatic ring count [MProp:scalar:integer]>
2

> <Hetero ring count [MProp:scalar:integer]>
2

> <FSP3 [MProp:scalar:double]>
0.41

> <Hydrogen bond donor count [MProp:scalar:integer]>
2

> <Hydrogen bond acceptor count [MProp:scalar:integer]>
6

> <Formal charge [MProp:scalar:integer]>
0

> <Topological polar surface area [A^2] [MProp:scalar:double]>
86.87

> <Polarizability [A^3] [MProp:scalar:double]>
34.22

> <Molar refractivity [cm^3/mol] [MProp:scalar:double]>
92.51

> <Van der Waals volume [A^3] [MProp:scalar:double]>
295.66

> <Minimum projection area [A^2] [MProp:scalar:double]>
43.33

> <Maximum projection area [A^2] [MProp:scalar:double]>
100.12

> <Minimum projection radius [A] [MProp:scalar:double]>
5.29

> <Maximum projection radius [A] [MProp:scalar:double]>
8.15

> <Van der Waals surface area [A^2] [MProp:scalar:double]>
448.12

> <Solvent accessible surface area [A^2] [MProp:scalar:double]>
491.35

> <Strongest acidic pKa [MProp:scalar:double]>
6.24

> <Strongest basic pKa [MProp:scalar:double]>
9.8

> <Isoelectric point [MProp:scalar:double]>
8.17

> <Intrinsic solubility [logS] [MProp:scalar:double]>
-3.53

> <Solubility category>
High

> <logP [MProp:scalar:double]>
-0.41

> <logD_PH0 [MProp:scalar:double]>
-1.19

> <logD_PH1 [MProp:scalar:double]>
-1.19

> <logD_PH2 [MProp:scalar:double]>
-1.19

> <logD_PH3 [MProp:scalar:double]>
-1.19

> <logD_PH4 [MProp:scalar:double]>
-1.18

> <logD_PH5 [MProp:scalar:double]>
-1.08

> <logD_PH6 [MProp:scalar:double]>
-0.73

> <logD_PH7 [MProp:scalar:double]>
-0.46

> <logD_PH8 [MProp:scalar:double]>
-0.41

> <logD_PH9 [MProp:scalar:double]>
-0.46

> <logD_PH10 [MProp:scalar:double]>
-0.77

> <logD_PH11 [MProp:scalar:double]>
-1.36

> <logD_PH12 [MProp:scalar:double]>
-1.64

> <logD_PH13 [MProp:scalar:double]>
-1.68

> <logD_PH14 [MProp:scalar:double]>
-1.68

> <HLB [MProp:scalar:double]>
12.84

> <IUPAC name>
7-(3-aminopyrrolidin-1-yl)-8-chloro-1-cyclopropyl-6-fluoro-4-oxo-1,4-dihydroquinoline-3-carboxylic acid

> <SMILES>
NC1CCN(C1)C1=C(F)C=C2C(=O)C(=CN(C3CC3)C2=C1Cl)C(O)=O

> <InChI>
InChI=1/C17H17ClFN3O3/c18-13-14-10(5-12(19)15(13)21-4-3-8(20)6-21)16(23)11(17(24)25)7-22(14)9-1-2-9/h5,7-9H,1-4,6,20H2,(H,24,25)

> <InChIKey>
QGPKADBNRMWEQR-UHFFFAOYNA-N

> <Traditional name>
clinafloxacin

> <Common names>
clinafloxacin; 克林沙星

> <CAS Registry Numbers(R)>
105956-97-6

$$$$
Danofloxacin
  Mrv2222 01232613222D          

 26 30  0  0  1  0            999 V2000
   -3.5724    1.2375    0.0000 C   0  0  0  0  0  0  0  0  0  0  0  0
   -2.8579    0.8250    0.0000 N   0  0  0  0  0  0  0  0  0  0  0  0
   -2.8579    0.0000    0.0000 C   0  0  0  0  0  0  0  0  0  0  0  0
   -2.1434   -0.4125    0.0000 C   0  0  2  0  0  0  0  0  0  0  0  0
   -2.3497    0.4125    0.0000 C   0  0  0  0  0  0  0  0  0  0  0  0
   -2.1434    1.2375    0.0000 C   0  0  1  0  0  0  0  0  0  0  0  0
   -1.4289    0.8250    0.0000 C   0  0  0  0  0  0  0  0  0  0  0  0
   -1.4289    0.0000    0.0000 N   0  0  0  0  0  0  0  0  0  0  0  0
   -0.7145   -0.4125    0.0000 C   0  0  0  0  0  0  0  0  0  0  0  0
   -0.7145   -1.2375    0.0000 C   0  0  0  0  0  0  0  0  0  0  0  0
    0.0000   -1.6500    0.0000 C   0  0  0  0  0  0  0  0  0  0  0  0
    0.7145   -1.2375    0.0000 C   0  0  0  0  0  0  0  0  0  0  0  0
    0.7145   -0.4125    0.0000 C   0  0  0  0  0  0  0  0  0  0  0  0
    0.0000    0.0000    0.0000 C   0  0  0  0  0  0  0  0  0  0  0  0
    1.4289    0.0000    0.0000 N   0  0  0  0  0  0  0  0  0  0  0  0
    2.1434   -0.4125    0.0000 C   0  0  0  0  0  0  0  0  0  0  0  0
    2.1434   -1.2375    0.0000 C   0  0  0  0  0  0  0  0  0  0  0  0
    1.4289   -1.6500    0.0000 C   0  0  0  0  0  0  0  0  0  0  0  0
    1.4289   -2.4750    0.0000 O   0  0  0  0  0  0  0  0  0  0  0  0
    2.8579   -1.6500    0.0000 C   0  0  0  0  0  0  0  0  0  0  0  0
    3.5724   -1.2375    0.0000 O   0  0  0  0  0  0  0  0  0  0  0  0
    2.8579   -2.4750    0.0000 O   0  0  0  0  0  0  0  0  0  0  0  0
    1.4289    0.8250    0.0000 C   0  0  0  0  0  0  0  0  0  0  0  0
    1.0164    1.5395    0.0000 C   0  0  0  0  0  0  0  0  0  0  0  0
    1.8414    1.5395    0.0000 C   0  0  0  0  0  0  0  0  0  0  0  0
   -1.4289   -1.6500    0.0000 F   0  0  0  0  0  0  0  0  0  0  0  0
  1  2  1  0  0  0  0
  2  3  1  0  0  0  0
  4  3  1  0  0  0  0
  4  5  1  1  0  0  0
  6  5  1  1  0  0  0
  6  2  1  0  0  0  0
  6  7  1  0  0  0  0
  7  8  1  0  0  0  0
  4  8  1  0  0  0  0
  8  9  1  0  0  0  0
  9 10  2  0  0  0  0
 10 11  1  0  0  0  0
 11 12  2  0  0  0  0
 12 13  1  0  0  0  0
 13 14  2  0  0  0  0
  9 14  1  0  0  0  0
 13 15  1  0  0  0  0
 15 16  1  0  0  0  0
 16 17  2  0  0  0  0
 17 18  1  0  0  0  0
 12 18  1  0  0  0  0
 18 19  2  0  0  0  0
 17 20  1  0  0  0  0
 20 21  2  0  0  0  0
 20 22  1  0  0  0  0
 15 23  1  0  0  0  0
 23 24  1  0  0  0  0
 24 25  1  0  0  0  0
 23 25  1  0  0  0  0
 10 26  1  0  0  0  0
M  END
> <Molar mass [g/mol] [MProp:scalar:double]>
357.385

> <Exact mass [Da] [MProp:scalar:double]>
357.148869679

> <Formula>
C19H20FN3O3

> <Composition>
C (63.86%), H (5.64%), F (5.32%), N (11.76%), O (13.43%)

> <Lipinski's rule of five [MProp:scalar:boolean]>
true

> <Atom count [MProp:scalar:integer]>
46

> <Heavy atom count [MProp:scalar:integer]>
26

> <Asymmetric atom count [MProp:scalar:integer]>
2

> <Rotatable bond count [MProp:scalar:integer]>
3

> <Ring count [MProp:scalar:integer]>
5

> <Aromatic ring count [MProp:scalar:integer]>
2

> <Hetero ring count [MProp:scalar:integer]>
3

> <FSP3 [MProp:scalar:double]>
0.47

> <Hydrogen bond donor count [MProp:scalar:integer]>
1

> <Hydrogen bond acceptor count [MProp:scalar:integer]>
6

> <Formal charge [MProp:scalar:integer]>
0

> <Topological polar surface area [A^2] [MProp:scalar:double]>
64.09

> <Polarizability [A^3] [MProp:scalar:double]>
35.21

> <Molar refractivity [cm^3/mol] [MProp:scalar:double]>
95.47

> <Van der Waals volume [A^3] [MProp:scalar:double]>
305.95

> <Minimum projection area [A^2] [MProp:scalar:double]>
46.19

> <Maximum projection area [A^2] [MProp:scalar:double]>
99.08

> <Minimum projection radius [A] [MProp:scalar:double]>
5.03

> <Maximum projection radius [A] [MProp:scalar:double]>
7.82

> <Van der Waals surface area [A^2] [MProp:scalar:double]>
474.93

> <Solvent accessible surface area [A^2] [MProp:scalar:double]>
504.91

> <Strongest acidic pKa [MProp:scalar:double]>
5.88

> <Strongest basic pKa [MProp:scalar:double]>
7.63

> <Isoelectric point [MProp:scalar:double]>
6.9

> <Intrinsic solubility [logS] [MProp:scalar:double]>
-2.64

> <Solubility category>
High

> <logP [MProp:scalar:double]>
0.14

> <logD_PH0 [MProp:scalar:double]>
-1.7

> <logD_PH1 [MProp:scalar:double]>
-1.57

> <logD_PH2 [MProp:scalar:double]>
-1.55

> <logD_PH3 [MProp:scalar:double]>
-1.52

> <logD_PH4 [MProp:scalar:double]>
-1.29

> <logD_PH5 [MProp:scalar:double]>
-0.63

> <logD_PH6 [MProp:scalar:double]>
0.01

> <logD_PH7 [MProp:scalar:double]>
0.14

> <logD_PH8 [MProp:scalar:double]>
-0.25

> <logD_PH9 [MProp:scalar:double]>
-1.01

> <logD_PH10 [MProp:scalar:double]>
-1.47

> <logD_PH11 [MProp:scalar:double]>
-1.57

> <logD_PH12 [MProp:scalar:double]>
-1.58

> <logD_PH13 [MProp:scalar:double]>
-1.58

> <logD_PH14 [MProp:scalar:double]>
-1.58

> <HLB [MProp:scalar:double]>
12.7

> <IUPAC name>
1-cyclopropyl-6-fluoro-7-[(1S,4S)-5-methyl-2,5-diazabicyclo[2.2.1]heptan-2-yl]-4-oxo-1,4-dihydroquinoline-3-carboxylic acid

> <SMILES>
CN1C[C@@H]2C[C@H]1CN2C1=C(F)C=C2C(=O)C(=CN(C3CC3)C2=C1)C(O)=O

> <InChI>
InChI=1S/C19H20FN3O3/c1-21-7-12-4-11(21)8-22(12)17-6-16-13(5-15(17)20)18(24)14(19(25)26)9-23(16)10-2-3-10/h5-6,9-12H,2-4,7-8H2,1H3,(H,25,26)/t11-,12+/m1/s1

> <InChIKey>
QMLVECGLEOSESV-RYUDHWBXSA-N

> <Traditional name>
danofloxacin

> <Common names>
advocid; advocin; danofloxacin; danofloxacine; danofloxacino; danofloxacinum; pfizer brand of danofloxacin mesylate; 达氟沙星

> <CAS Registry Numbers(R)>
112398-08-0

$$$$
Difloxacin
  Mrv2222 01232613222D          

 29 32  0  0  0  0            999 V2000
   -3.5724    1.2375    0.0000 C   0  0  0  0  0  0  0  0  0  0  0  0
   -2.8579    0.8250    0.0000 N   0  0  0  0  0  0  0  0  0  0  0  0
   -2.1434    1.2375    0.0000 C   0  0  0  0  0  0  0  0  0  0  0  0
   -1.4289    0.8250    0.0000 C   0  0  0  0  0  0  0  0  0  0  0  0
   -1.4289    0.0000    0.0000 N   0  0  0  0  0  0  0  0  0  0  0  0
   -2.1434   -0.4125    0.0000 C   0  0  0  0  0  0  0  0  0  0  0  0
   -2.8579    0.0000    0.0000 C   0  0  0  0  0  0  0  0  0  0  0  0
   -0.7145   -0.4125    0.0000 C   0  0  0  0  0  0  0  0  0  0  0  0
   -0.7145   -1.2375    0.0000 C   0  0  0  0  0  0  0  0  0  0  0  0
    0.0000   -1.6500    0.0000 C   0  0  0  0  0  0  0  0  0  0  0  0
    0.7145   -1.2375    0.0000 C   0  0  0  0  0  0  0  0  0  0  0  0
    0.7145   -0.4125    0.0000 C   0  0  0  0  0  0  0  0  0  0  0  0
    0.0000    0.0000    0.0000 C   0  0  0  0  0  0  0  0  0  0  0  0
    1.4289    0.0000    0.0000 N   0  0  0  0  0  0  0  0  0  0  0  0
    2.1434   -0.4125    0.0000 C   0  0  0  0  0  0  0  0  0  0  0  0
    2.1434   -1.2375    0.0000 C   0  0  0  0  0  0  0  0  0  0  0  0
    1.4289   -1.6500    0.0000 C   0  0  0  0  0  0  0  0  0  0  0  0
    1.4289   -2.4750    0.0000 O   0  0  0  0  0  0  0  0  0  0  0  0
    2.8579   -1.6500    0.0000 C   0  0  0  0  0  0  0  0  0  0  0  0
    2.8579   -2.4750    0.0000 O   0  0  0  0  0  0  0  0  0  0  0  0
    3.5724   -1.2375    0.0000 O   0  0  0  0  0  0  0  0  0  0  0  0
    1.4289    0.8250    0.0000 C   0  0  0  0  0  0  0  0  0  0  0  0
    0.7145    1.2375    0.0000 C   0  0  0  0  0  0  0  0  0  0  0  0
    0.7145    2.0625    0.0000 C   0  0  0  0  0  0  0  0  0  0  0  0
    1.4289    2.4750    0.0000 C   0  0  0  0  0  0  0  0  0  0  0  0
    2.1434    2.0625    0.0000 C   0  0  0  0  0  0  0  0  0  0  0  0
    2.1434    1.2375    0.0000 C   0  0  0  0  0  0  0  0  0  0  0  0
    1.4289    3.3000    0.0000 F   0  0  0  0  0  0  0  0  0  0  0  0
   -1.4289   -1.6500    0.0000 F   0  0  0  0  0  0  0  0  0  0  0  0
  1  2  1  0  0  0  0
  2  3  1  0  0  0  0
  3  4  1  0  0  0  0
  4  5  1  0  0  0  0
  5  6  1  0  0  0  0
  6  7  1  0  0  0  0
  2  7  1  0  0  0  0
  5  8  1  0  0  0  0
  8  9  2  0  0  0  0
  9 10  1  0  0  0  0
 10 11  2  0  0  0  0
 11 12  1  0  0  0  0
 12 13  2  0  0  0  0
  8 13  1  0  0  0  0
 12 14  1  0  0  0  0
 14 15  1  0  0  0  0
 15 16  2  0  0  0  0
 16 17  1  0  0  0  0
 11 17  1  0  0  0  0
 17 18  2  0  0  0  0
 16 19  1  0  0  0  0
 19 20  2  0  0  0  0
 19 21  1  0  0  0  0
 14 22  1  0  0  0  0
 22 23  2  0  0  0  0
 23 24  1  0  0  0  0
 24 25  2  0  0  0  0
 25 26  1  0  0  0  0
 26 27  2  0  0  0  0
 22 27  1  0  0  0  0
 25 28  1  0  0  0  0
  9 29  1  0  0  0  0
M  END
> <Molar mass [g/mol] [MProp:scalar:double]>
399.398

> <Exact mass [Da] [MProp:scalar:double]>
399.13944781

> <Formula>
C21H19F2N3O3

> <Composition>
C (63.15%), H (4.80%), F (9.51%), N (10.52%), O (12.02%)

> <Lipinski's rule of five [MProp:scalar:boolean]>
true

> <Atom count [MProp:scalar:integer]>
48

> <Heavy atom count [MProp:scalar:integer]>
29

> <Asymmetric atom count [MProp:scalar:integer]>
0

> <Rotatable bond count [MProp:scalar:integer]>
3

> <Ring count [MProp:scalar:integer]>
4

> <Aromatic ring count [MProp:scalar:integer]>
3

> <Hetero ring count [MProp:scalar:integer]>
2

> <FSP3 [MProp:scalar:double]>
0.24

> <Hydrogen bond donor count [MProp:scalar:integer]>
1

> <Hydrogen bond acceptor count [MProp:scalar:integer]>
6

> <Formal charge [MProp:scalar:integer]>
0

> <Topological polar surface area [A^2] [MProp:scalar:double]>
64.09

> <Polarizability [A^3] [MProp:scalar:double]>
38.57

> <Molar refractivity [cm^3/mol] [MProp:scalar:double]>
105.19

> <Van der Waals volume [A^3] [MProp:scalar:double]>
336.36

> <Minimum projection area [A^2] [MProp:scalar:double]>
55.77

> <Maximum projection area [A^2] [MProp:scalar:double]>
108.12

> <Minimum projection radius [A] [MProp:scalar:double]>
6.41

> <Maximum projection radius [A] [MProp:scalar:double]>
8.41

> <Van der Waals surface area [A^2] [MProp:scalar:double]>
521.12

> <Solvent accessible surface area [A^2] [MProp:scalar:double]>
571.75

> <Strongest acidic pKa [MProp:scalar:double]>
6.33

> <Strongest basic pKa [MProp:scalar:double]>
8.37

> <Isoelectric point [MProp:scalar:double]>
7.5

> <Intrinsic solubility [logS] [MProp:scalar:double]>
-3.67

> <Solubility category>
High

> <logP [MProp:scalar:double]>
1.27

> <logD_PH0 [MProp:scalar:double]>
-0.43

> <logD_PH1 [MProp:scalar:double]>
-0.21

> <logD_PH2 [MProp:scalar:double]>
-0.19

> <logD_PH3 [MProp:scalar:double]>
-0.18

> <logD_PH4 [MProp:scalar:double]>
-0.12

> <logD_PH5 [MProp:scalar:double]>
0.22

> <logD_PH6 [MProp:scalar:double]>
0.9

> <logD_PH7 [MProp:scalar:double]>
1.27

> <logD_PH8 [MProp:scalar:double]>
1.22

> <logD_PH9 [MProp:scalar:double]>
0.69

> <logD_PH10 [MProp:scalar:double]>
0.06

> <logD_PH11 [MProp:scalar:double]>
-0.17

> <logD_PH12 [MProp:scalar:double]>
-0.21

> <logD_PH13 [MProp:scalar:double]>
-0.21

> <logD_PH14 [MProp:scalar:double]>
-0.21

> <HLB [MProp:scalar:double]>
12.52

> <IUPAC name>
6-fluoro-1-(4-fluorophenyl)-7-(4-methylpiperazin-1-yl)-4-oxo-1,4-dihydroquinoline-3-carboxylic acid

> <SMILES>
CN1CCN(CC1)C1=C(F)C=C2C(=C1)N(C=C(C(O)=O)C2=O)C1=CC=C(F)C=C1

> <InChI>
InChI=1S/C21H19F2N3O3/c1-24-6-8-25(9-7-24)19-11-18-15(10-17(19)23)20(27)16(21(28)29)12-26(18)14-4-2-13(22)3-5-14/h2-5,10-12H,6-9H2,1H3,(H,28,29)

> <InChIKey>
NOCJXYPHIIZEHN-UHFFFAOYSA-N

> <Traditional name>
difloxacin

> <Common names>
1-ffmpoc; dicural; difloxacin; marbocyl; 二氟沙星

> <CAS Registry Numbers(R)>
98106-17-3

$$$$
Dx-619
  Mrv2222 01232613222D          

 29 33  0  0  1  0            999 V2000
   -0.7145    1.2375    0.0000 C   0  0  0  0  0  0  0  0  0  0  0  0
    0.0000    0.8250    0.0000 O   0  0  0  0  0  0  0  0  0  0  0  0
    0.0000    0.0000    0.0000 C   0  0  0  0  0  0  0  0  0  0  0  0
   -0.7145   -0.4125    0.0000 C   0  0  0  0  0  0  0  0  0  0  0  0
   -0.7145   -1.2375    0.0000 C   0  0  0  0  0  0  0  0  0  0  0  0
    0.0000   -1.6500    0.0000 C   0  0  0  0  0  0  0  0  0  0  0  0
    0.7145   -1.2375    0.0000 C   0  0  0  0  0  0  0  0  0  0  0  0
    0.7145   -0.4125    0.0000 C   0  0  0  0  0  0  0  0  0  0  0  0
    1.4289    0.0000    0.0000 N   0  0  0  0  0  0  0  0  0  0  0  0
    2.1434   -0.4125    0.0000 C   0  0  0  0  0  0  0  0  0  0  0  0
    2.1434   -1.2375    0.0000 C   0  0  0  0  0  0  0  0  0  0  0  0
    1.4289   -1.6500    0.0000 C   0  0  0  0  0  0  0  0  0  0  0  0
    1.4289   -2.4750    0.0000 O   0  0  0  0  0  0  0  0  0  0  0  0
    2.8579   -1.6500    0.0000 C   0  0  0  0  0  0  0  0  0  0  0  0
    2.8579   -2.4750    0.0000 O   0  0  0  0  0  0  0  0  0  0  0  0
    3.5724   -1.2375    0.0000 O   0  0  0  0  0  0  0  0  0  0  0  0
    1.4289    0.8250    0.0000 C   0  0  2  0  0  0  0  0  0  0  0  0
    1.0164    1.5395    0.0000 C   0  0  0  0  0  0  0  0  0  0  0  0
    1.8414    1.5395    0.0000 C   0  0  2  0  0  0  0  0  0  0  0  0
    2.5559    1.9520    0.0000 F   0  0  0  0  0  0  0  0  0  0  0  0
   -1.4289    0.0000    0.0000 N   0  0  0  0  0  0  0  0  0  0  0  0
   -2.1826   -0.3356    0.0000 C   0  0  0  0  0  0  0  0  0  0  0  0
   -2.7346    0.2775    0.0000 C   0  0  0  0  0  0  0  0  0  0  0  0
   -2.3221    0.9920    0.0000 C   0  0  2  0  0  0  0  0  0  0  0  0
   -1.5152    0.8205    0.0000 C   0  0  0  0  0  0  0  0  0  0  0  0
   -2.6577    1.7457    0.0000 C   0  0  0  0  0  0  0  0  0  0  0  0
   -2.7153    2.5687    0.0000 C   0  0  0  0  0  0  0  0  0  0  0  0
   -1.9738    2.2070    0.0000 C   0  0  0  0  0  0  0  0  0  0  0  0
   -3.4582    1.5461    0.0000 N   0  0  0  0  0  0  0  0  0  0  0  0
  1  2  1  0  0  0  0
  2  3  1  0  0  0  0
  3  4  1  0  0  0  0
  4  5  2  0  0  0  0
  5  6  1  0  0  0  0
  6  7  2  0  0  0  0
  7  8  1  0  0  0  0
  3  8  2  0  0  0  0
  8  9  1  0  0  0  0
  9 10  1  0  0  0  0
 10 11  2  0  0  0  0
 11 12  1  0  0  0  0
  7 12  1  0  0  0  0
 12 13  2  0  0  0  0
 11 14  1  0  0  0  0
 14 15  2  0  0  0  0
 14 16  1  0  0  0  0
 17  9  1  6  0  0  0
 17 18  1  0  0  0  0
 19 18  1  0  0  0  0
 17 19  1  0  0  0  0
 19 20  1  6  0  0  0
  4 21  1  0  0  0  0
 21 22  1  0  0  0  0
 22 23  1  0  0  0  0
 24 23  1  0  0  0  0
 24 25  1  0  0  0  0
 21 25  1  0  0  0  0
 24 26  1  1  0  0  0
 26 27  1  0  0  0  0
 27 28  1  0  0  0  0
 26 28  1  0  0  0  0
 26 29  1  0  0  0  0
M  END
> <Molar mass [g/mol] [MProp:scalar:double]>
401.438

> <Exact mass [Da] [MProp:scalar:double]>
401.175084428

> <Formula>
C21H24FN3O4

> <Composition>
C (62.83%), H (6.03%), F (4.73%), N (10.47%), O (15.94%)

> <Lipinski's rule of five [MProp:scalar:boolean]>
true

> <Atom count [MProp:scalar:integer]>
53

> <Heavy atom count [MProp:scalar:integer]>
29

> <Asymmetric atom count [MProp:scalar:integer]>
3

> <Rotatable bond count [MProp:scalar:integer]>
5

> <Ring count [MProp:scalar:integer]>
5

> <Aromatic ring count [MProp:scalar:integer]>
2

> <Hetero ring count [MProp:scalar:integer]>
2

> <FSP3 [MProp:scalar:double]>
0.52

> <Hydrogen bond donor count [MProp:scalar:integer]>
2

> <Hydrogen bond acceptor count [MProp:scalar:integer]>
7

> <Formal charge [MProp:scalar:integer]>
0

> <Topological polar surface area [A^2] [MProp:scalar:double]>
96.1

> <Polarizability [A^3] [MProp:scalar:double]>
39.62

> <Molar refractivity [cm^3/mol] [MProp:scalar:double]>
105.66

> <Van der Waals volume [A^3] [MProp:scalar:double]>
347.79

> <Minimum projection area [A^2] [MProp:scalar:double]>
52.75

> <Maximum projection area [A^2] [MProp:scalar:double]>
110.23

> <Minimum projection radius [A] [MProp:scalar:double]>
5.21

> <Maximum projection radius [A] [MProp:scalar:double]>
8.97

> <Van der Waals surface area [A^2] [MProp:scalar:double]>
550.8

> <Solvent accessible surface area [A^2] [MProp:scalar:double]>
542.0

> <Strongest acidic pKa [MProp:scalar:double]>
6.13

> <Strongest basic pKa [MProp:scalar:double]>
9.22

> <Isoelectric point [MProp:scalar:double]>
7.82

> <Intrinsic solubility [logS] [MProp:scalar:double]>
-3.27

> <Solubility category>
High

> <logP [MProp:scalar:double]>
-1.04

> <logD_PH0 [MProp:scalar:double]>
-3.7

> <logD_PH1 [MProp:scalar:double]>
-2.77

> <logD_PH2 [MProp:scalar:double]>
-2.09

> <logD_PH3 [MProp:scalar:double]>
-1.87

> <logD_PH4 [MProp:scalar:double]>
-1.83

> <logD_PH5 [MProp:scalar:double]>
-1.7

> <logD_PH6 [MProp:scalar:double]>
-1.3

> <logD_PH7 [MProp:scalar:double]>
-1.06

> <logD_PH8 [MProp:scalar:double]>
-1.04

> <logD_PH9 [MProp:scalar:double]>
-1.21

> <logD_PH10 [MProp:scalar:double]>
-1.75

> <logD_PH11 [MProp:scalar:double]>
-2.22

> <logD_PH12 [MProp:scalar:double]>
-2.32

> <logD_PH13 [MProp:scalar:double]>
-2.34

> <logD_PH14 [MProp:scalar:double]>
-2.34

> <HLB [MProp:scalar:double]>
12.65

> <IUPAC name>
7-[(3R)-3-(1-aminocyclopropyl)pyrrolidin-1-yl]-1-[(1R,2S)-2-fluorocyclopropyl]-8-methoxy-4-oxo-1,4-dihydroquinoline-3-carboxylic acid

> <SMILES>
COC1=C2N(C=C(C(O)=O)C(=O)C2=CC=C1N1CC[C@H](C1)C1(N)CC1)[C@@H]1C[C@@H]1F

> <InChI>
InChI=1S/C21H24FN3O4/c1-29-19-15(24-7-4-11(9-24)21(23)5-6-21)3-2-12-17(19)25(16-8-14(16)22)10-13(18(12)26)20(27)28/h2-3,10-11,14,16H,4-9,23H2,1H3,(H,27,28)/t11-,14-,16-/m1/s1

> <InChIKey>
ZLICIITZJTYKAQ-DIOULYMOSA-N

> <Traditional name>
7-[(3R)-3-(1-aminocyclopropyl)pyrrolidin-1-yl]-1-[(1R,2S)-2-fluorocyclopropyl]-8-methoxy-4-oxoquinoline-3-carboxylic acid

> <Common names>
N/A

> <CAS Registry Numbers(R)>
431058-65-0

$$$$
Enoxacin
  Mrv2222 01232613222D          

 23 25  0  0  0  0            999 V2000
    2.1434   -2.8875    0.0000 C   0  0  0  0  0  0  0  0  0  0  0  0
    1.4289   -2.4750    0.0000 C   0  0  0  0  0  0  0  0  0  0  0  0
    1.4289   -1.6500    0.0000 N   0  0  0  0  0  0  0  0  0  0  0  0
    0.7145   -1.2375    0.0000 C   0  0  0  0  0  0  0  0  0  0  0  0
    0.7145   -0.4125    0.0000 C   0  0  0  0  0  0  0  0  0  0  0  0
    1.4289    0.0000    0.0000 C   0  0  0  0  0  0  0  0  0  0  0  0
    1.4289    0.8250    0.0000 O   0  0  0  0  0  0  0  0  0  0  0  0
    2.1434   -0.4125    0.0000 C   0  0  0  0  0  0  0  0  0  0  0  0
    2.8579    0.0000    0.0000 C   0  0  0  0  0  0  0  0  0  0  0  0
    3.5724   -0.4125    0.0000 C   0  0  0  0  0  0  0  0  0  0  0  0
    3.5724   -1.2375    0.0000 C   0  0  0  0  0  0  0  0  0  0  0  0
    2.8579   -1.6500    0.0000 N   0  0  0  0  0  0  0  0  0  0  0  0
    2.1434   -1.2375    0.0000 C   0  0  0  0  0  0  0  0  0  0  0  0
    4.2868   -1.6500    0.0000 N   0  0  0  0  0  0  0  0  0  0  0  0
    5.0013   -1.2375    0.0000 C   0  0  0  0  0  0  0  0  0  0  0  0
    5.7158   -1.6500    0.0000 C   0  0  0  0  0  0  0  0  0  0  0  0
    5.7158   -2.4750    0.0000 N   0  0  0  0  0  0  0  0  0  0  0  0
    5.0013   -2.8875    0.0000 C   0  0  0  0  0  0  0  0  0  0  0  0
    4.2868   -2.4750    0.0000 C   0  0  0  0  0  0  0  0  0  0  0  0
    4.2868    0.0000    0.0000 F   0  0  0  0  0  0  0  0  0  0  0  0
    0.0000    0.0000    0.0000 C   0  0  0  0  0  0  0  0  0  0  0  0
   -0.7145   -0.4125    0.0000 O   0  0  0  0  0  0  0  0  0  0  0  0
    0.0000    0.8250    0.0000 O   0  0  0  0  0  0  0  0  0  0  0  0
  1  2  1  0  0  0  0
  2  3  1  0  0  0  0
  3  4  1  0  0  0  0
  4  5  2  0  0  0  0
  5  6  1  0  0  0  0
  6  7  2  0  0  0  0
  6  8  1  0  0  0  0
  8  9  2  0  0  0  0
  9 10  1  0  0  0  0
 10 11  2  0  0  0  0
 11 12  1  0  0  0  0
 12 13  2  0  0  0  0
  8 13  1  0  0  0  0
  3 13  1  0  0  0  0
 11 14  1  0  0  0  0
 14 15  1  0  0  0  0
 15 16  1  0  0  0  0
 16 17  1  0  0  0  0
 17 18  1  0  0  0  0
 18 19  1  0  0  0  0
 14 19  1  0  0  0  0
 10 20  1  0  0  0  0
  5 21  1  0  0  0  0
 21 22  2  0  0  0  0
 21 23  1  0  0  0  0
M  END
> <Molar mass [g/mol] [MProp:scalar:double]>
320.324

> <Exact mass [Da] [MProp:scalar:double]>
320.128468586

> <Formula>
C15H17FN4O3

> <Composition>
C (56.24%), H (5.35%), F (5.93%), N (17.49%), O (14.98%)

> <Lipinski's rule of five [MProp:scalar:boolean]>
true

> <Atom count [MProp:scalar:integer]>
40

> <Heavy atom count [MProp:scalar:integer]>
23

> <Asymmetric atom count [MProp:scalar:integer]>
0

> <Rotatable bond count [MProp:scalar:integer]>
3

> <Ring count [MProp:scalar:integer]>
3

> <Aromatic ring count [MProp:scalar:integer]>
2

> <Hetero ring count [MProp:scalar:integer]>
3

> <FSP3 [MProp:scalar:double]>
0.4

> <Hydrogen bond donor count [MProp:scalar:integer]>
2

> <Hydrogen bond acceptor count [MProp:scalar:integer]>
7

> <Formal charge [MProp:scalar:integer]>
0

> <Topological polar surface area [A^2] [MProp:scalar:double]>
85.77

> <Polarizability [A^3] [MProp:scalar:double]>
30.31

> <Molar refractivity [cm^3/mol] [MProp:scalar:double]>
83.95

> <Van der Waals volume [A^3] [MProp:scalar:double]>
273.1

> <Minimum projection area [A^2] [MProp:scalar:double]>
41.88

> <Maximum projection area [A^2] [MProp:scalar:double]>
94.54

> <Minimum projection radius [A] [MProp:scalar:double]>
5.01

> <Maximum projection radius [A] [MProp:scalar:double]>
7.43

> <Van der Waals surface area [A^2] [MProp:scalar:double]>
428.38

> <Solvent accessible surface area [A^2] [MProp:scalar:double]>
489.26

> <Strongest acidic pKa [MProp:scalar:double]>
5.7

> <Strongest basic pKa [MProp:scalar:double]>
8.58

> <Isoelectric point [MProp:scalar:double]>
7.29

> <Intrinsic solubility [logS] [MProp:scalar:double]>
-2.62

> <Solubility category>
High

> <logP [MProp:scalar:double]>
-0.94

> <logD_PH0 [MProp:scalar:double]>
-2.03

> <logD_PH1 [MProp:scalar:double]>
-1.85

> <logD_PH2 [MProp:scalar:double]>
-1.83

> <logD_PH3 [MProp:scalar:double]>
-1.82

> <logD_PH4 [MProp:scalar:double]>
-1.77

> <logD_PH5 [MProp:scalar:double]>
-1.48

> <logD_PH6 [MProp:scalar:double]>
-1.06

> <logD_PH7 [MProp:scalar:double]>
-0.94

> <logD_PH8 [MProp:scalar:double]>
-1.01

> <logD_PH9 [MProp:scalar:double]>
-1.4

> <logD_PH10 [MProp:scalar:double]>
-1.92

> <logD_PH11 [MProp:scalar:double]>
-2.09

> <logD_PH12 [MProp:scalar:double]>
-2.11

> <logD_PH13 [MProp:scalar:double]>
-2.11

> <logD_PH14 [MProp:scalar:double]>
-2.11

> <HLB [MProp:scalar:double]>
14.44

> <IUPAC name>
1-ethyl-6-fluoro-4-oxo-7-(piperazin-1-yl)-1,4-dihydro-1,8-naphthyridine-3-carboxylic acid

> <SMILES>
CCN1C=C(C(O)=O)C(=O)C2=CC(F)=C(N=C12)N1CCNCC1

> <InChI>
InChI=1S/C15H17FN4O3/c1-2-19-8-10(15(22)23)12(21)9-7-11(16)14(18-13(9)19)20-5-3-17-4-6-20/h7-8,17H,2-6H2,1H3,(H,22,23)

> <InChIKey>
IDYZIJYBMGIQMJ-UHFFFAOYSA-N

> <Traditional name>
enoxacin

> <Common names>
ENX; bactidan; comprecin; enoram; enoxacin; enoxacin (product); enoxacin (substance); enoxacin preparation; enoxacine; enoxacino; enoxacinum; enoxin; enoxor; faulding brand of enoxacin; flumark; penetrex; pierre fabre brand of enoxacin sesquihydrate; sesquihydrate, enoxacin

> <CAS Registry Numbers(R)>
74011-58-8

$$$$
Fleroxacin
  Mrv2222 01232613222D          

 26 28  0  0  0  0            999 V2000
   -3.5724    1.2375    0.0000 C   0  0  0  0  0  0  0  0  0  0  0  0
   -2.8579    0.8250    0.0000 N   0  0  0  0  0  0  0  0  0  0  0  0
   -2.1434    1.2375    0.0000 C   0  0  0  0  0  0  0  0  0  0  0  0
   -1.4289    0.8250    0.0000 C   0  0  0  0  0  0  0  0  0  0  0  0
   -1.4289    0.0000    0.0000 N   0  0  0  0  0  0  0  0  0  0  0  0
   -2.1434   -0.4125    0.0000 C   0  0  0  0  0  0  0  0  0  0  0  0
   -2.8579    0.0000    0.0000 C   0  0  0  0  0  0  0  0  0  0  0  0
   -0.7145   -0.4125    0.0000 C   0  0  0  0  0  0  0  0  0  0  0  0
   -0.7145   -1.2375    0.0000 C   0  0  0  0  0  0  0  0  0  0  0  0
    0.0000   -1.6500    0.0000 C   0  0  0  0  0  0  0  0  0  0  0  0
    0.7145   -1.2375    0.0000 C   0  0  0  0  0  0  0  0  0  0  0  0
    0.7145   -0.4125    0.0000 C   0  0  0  0  0  0  0  0  0  0  0  0
    0.0000    0.0000    0.0000 C   0  0  0  0  0  0  0  0  0  0  0  0
    0.0000    0.8250    0.0000 F   0  0  0  0  0  0  0  0  0  0  0  0
    1.4289    0.0000    0.0000 N   0  0  0  0  0  0  0  0  0  0  0  0
    2.1434   -0.4125    0.0000 C   0  0  0  0  0  0  0  0  0  0  0  0
    2.1434   -1.2375    0.0000 C   0  0  0  0  0  0  0  0  0  0  0  0
    1.4289   -1.6500    0.0000 C   0  0  0  0  0  0  0  0  0  0  0  0
    1.4289   -2.4750    0.0000 O   0  0  0  0  0  0  0  0  0  0  0  0
    2.8579   -1.6500    0.0000 C   0  0  0  0  0  0  0  0  0  0  0  0
    3.5724   -1.2375    0.0000 O   0  0  0  0  0  0  0  0  0  0  0  0
    2.8579   -2.4750    0.0000 O   0  0  0  0  0  0  0  0  0  0  0  0
    1.4289    0.8250    0.0000 C   0  0  0  0  0  0  0  0  0  0  0  0
    0.7145    1.2375    0.0000 C   0  0  0  0  0  0  0  0  0  0  0  0
    0.7145    2.0625    0.0000 F   0  0  0  0  0  0  0  0  0  0  0  0
   -1.4289   -1.6500    0.0000 F   0  0  0  0  0  0  0  0  0  0  0  0
  1  2  1  0  0  0  0
  2  3  1  0  0  0  0
  3  4  1  0  0  0  0
  4  5  1  0  0  0  0
  5  6  1  0  0  0  0
  6  7  1  0  0  0  0
  2  7  1  0  0  0  0
  5  8  1  0  0  0  0
  8  9  2  0  0  0  0
  9 10  1  0  0  0  0
 10 11  2  0  0  0  0
 11 12  1  0  0  0  0
 12 13  2  0  0  0  0
  8 13  1  0  0  0  0
 13 14  1  0  0  0  0
 12 15  1  0  0  0  0
 15 16  1  0  0  0  0
 16 17  2  0  0  0  0
 17 18  1  0  0  0  0
 11 18  1  0  0  0  0
 18 19  2  0  0  0  0
 17 20  1  0  0  0  0
 20 21  2  0  0  0  0
 20 22  1  0  0  0  0
 15 23  1  0  0  0  0
 23 24  1  0  0  0  0
 24 25  1  0  0  0  0
  9 26  1  0  0  0  0
M  END
> <Molar mass [g/mol] [MProp:scalar:double]>
369.344

> <Exact mass [Da] [MProp:scalar:double]>
369.130025941

> <Formula>
C17H18F3N3O3

> <Composition>
C (55.28%), H (4.91%), F (15.43%), N (11.38%), O (13.00%)

> <Lipinski's rule of five [MProp:scalar:boolean]>
true

> <Atom count [MProp:scalar:integer]>
44

> <Heavy atom count [MProp:scalar:integer]>
26

> <Asymmetric atom count [MProp:scalar:integer]>
0

> <Rotatable bond count [MProp:scalar:integer]>
4

> <Ring count [MProp:scalar:integer]>
3

> <Aromatic ring count [MProp:scalar:integer]>
2

> <Hetero ring count [MProp:scalar:integer]>
2

> <FSP3 [MProp:scalar:double]>
0.41

> <Hydrogen bond donor count [MProp:scalar:integer]>
1

> <Hydrogen bond acceptor count [MProp:scalar:integer]>
6

> <Formal charge [MProp:scalar:integer]>
0

> <Topological polar surface area [A^2] [MProp:scalar:double]>
64.09

> <Polarizability [A^3] [MProp:scalar:double]>
32.58

> <Molar refractivity [cm^3/mol] [MProp:scalar:double]>
90.84

> <Van der Waals volume [A^3] [MProp:scalar:double]>
305.16

> <Minimum projection area [A^2] [MProp:scalar:double]>
47.09

> <Maximum projection area [A^2] [MProp:scalar:double]>
101.47

> <Minimum projection radius [A] [MProp:scalar:double]>
5.57

> <Maximum projection radius [A] [MProp:scalar:double]>
8.46

> <Van der Waals surface area [A^2] [MProp:scalar:double]>
480.37

> <Solvent accessible surface area [A^2] [MProp:scalar:double]>
524.17

> <Strongest acidic pKa [MProp:scalar:double]>
6.29

> <Strongest basic pKa [MProp:scalar:double]>
8.24

> <Isoelectric point [MProp:scalar:double]>
7.41

> <Intrinsic solubility [logS] [MProp:scalar:double]>
-2.39

> <Solubility category>
High

> <logP [MProp:scalar:double]>
-0.16

> <logD_PH0 [MProp:scalar:double]>
-1.69

> <logD_PH1 [MProp:scalar:double]>
-1.69

> <logD_PH2 [MProp:scalar:double]>
-1.69

> <logD_PH3 [MProp:scalar:double]>
-1.68

> <logD_PH4 [MProp:scalar:double]>
-1.6

> <logD_PH5 [MProp:scalar:double]>
-1.21

> <logD_PH6 [MProp:scalar:double]>
-0.51

> <logD_PH7 [MProp:scalar:double]>
-0.16

> <logD_PH8 [MProp:scalar:double]>
-0.26

> <logD_PH9 [MProp:scalar:double]>
-0.84

> <logD_PH10 [MProp:scalar:double]>
-1.47

> <logD_PH11 [MProp:scalar:double]>
-1.68

> <logD_PH12 [MProp:scalar:double]>
-1.71

> <logD_PH13 [MProp:scalar:double]>
-1.71

> <logD_PH14 [MProp:scalar:double]>
-1.71

> <HLB [MProp:scalar:double]>
13.72

> <IUPAC name>
6,8-difluoro-1-(2-fluoroethyl)-7-(4-methylpiperazin-1-yl)-4-oxo-1,4-dihydroquinoline-3-carboxylic acid

> <SMILES>
CN1CCN(CC1)C1=C(F)C=C2C(=O)C(=CN(CCF)C2=C1F)C(O)=O

> <InChI>
InChI=1S/C17H18F3N3O3/c1-21-4-6-22(7-5-21)15-12(19)8-10-14(13(15)20)23(3-2-18)9-11(16(10)24)17(25)26/h8-9H,2-7H2,1H3,(H,25,26)

> <InChIKey>
XBJBPGROQZJDOJ-UHFFFAOYSA-N

> <Traditional name>
fleroxacin

> <Common names>
FLRX; fleroxacin; fleroxacin (substance); fleroxacine; fleroxacino; fleroxacinum; fleroxicin; grünenthal brand of fleroxacin; megalocin; megalone; quinodis; 氟罗沙星

> <CAS Registry Numbers(R)>
79660-72-3, 79660-53-0

$$$$
Garenoxacin
  Mrv2222 01232613222D          

 31 35  0  0  1  0            999 V2000
   -3.8974   -3.5146    0.0000 C   0  0  0  0  0  0  0  0  0  0  0  0
   -3.6425   -2.7299    0.0000 C   0  0  2  0  0  0  0  0  0  0  0  0
   -2.8579   -2.4750    0.0000 C   0  0  0  0  0  0  0  0  0  0  0  0
   -2.8579   -1.6500    0.0000 C   0  0  0  0  0  0  0  0  0  0  0  0
   -3.6425   -1.3951    0.0000 C   0  0  0  0  0  0  0  0  0  0  0  0
   -4.1274   -2.0625    0.0000 N   0  0  0  0  0  0  0  0  0  0  0  0
   -2.1434   -1.2375    0.0000 C   0  0  0  0  0  0  0  0  0  0  0  0
   -1.4289   -1.6500    0.0000 C   0  0  0  0  0  0  0  0  0  0  0  0
   -1.4289   -2.4750    0.0000 C   0  0  0  0  0  0  0  0  0  0  0  0
   -2.1434   -2.8875    0.0000 C   0  0  0  0  0  0  0  0  0  0  0  0
   -0.7145   -1.2375    0.0000 C   0  0  0  0  0  0  0  0  0  0  0  0
    0.0000   -1.6500    0.0000 C   0  0  0  0  0  0  0  0  0  0  0  0
    0.7145   -1.2375    0.0000 C   0  0  0  0  0  0  0  0  0  0  0  0
    0.7145   -0.4125    0.0000 C   0  0  0  0  0  0  0  0  0  0  0  0
    0.0000    0.0000    0.0000 C   0  0  0  0  0  0  0  0  0  0  0  0
   -0.7145   -0.4125    0.0000 C   0  0  0  0  0  0  0  0  0  0  0  0
    1.4289    0.0000    0.0000 C   0  0  0  0  0  0  0  0  0  0  0  0
    1.4289    0.8250    0.0000 O   0  0  0  0  0  0  0  0  0  0  0  0
    2.1434   -0.4125    0.0000 C   0  0  0  0  0  0  0  0  0  0  0  0
    2.1434   -1.2375    0.0000 C   0  0  0  0  0  0  0  0  0  0  0  0
    1.4289   -1.6500    0.0000 N   0  0  0  0  0  0  0  0  0  0  0  0
    1.4289   -2.4750    0.0000 C   0  0  0  0  0  0  0  0  0  0  0  0
    1.8414   -3.1895    0.0000 C   0  0  0  0  0  0  0  0  0  0  0  0
    1.0164   -3.1895    0.0000 C   0  0  0  0  0  0  0  0  0  0  0  0
    2.8579    0.0000    0.0000 C   0  0  0  0  0  0  0  0  0  0  0  0
    2.8579    0.8250    0.0000 O   0  0  0  0  0  0  0  0  0  0  0  0
    3.5724   -0.4125    0.0000 O   0  0  0  0  0  0  0  0  0  0  0  0
    0.0000   -2.4750    0.0000 O   0  0  0  0  0  0  0  0  0  0  0  0
   -0.7145   -2.8875    0.0000 C   0  0  0  0  0  0  0  0  0  0  0  0
   -0.7145   -3.7125    0.0000 F   0  0  0  0  0  0  0  0  0  0  0  0
   -1.5350   -2.9737    0.0000 F   0  0  0  0  0  0  0  0  0  0  0  0
  2  1  1  1  0  0  0
  2  3  1  0  0  0  0
  3  4  2  0  0  0  0
  4  5  1  0  0  0  0
  5  6  1  0  0  0  0
  2  6  1  0  0  0  0
  4  7  1  0  0  0  0
  7  8  2  0  0  0  0
  8  9  1  0  0  0  0
  9 10  2  0  0  0  0
  3 10  1  0  0  0  0
  8 11  1  0  0  0  0
 11 12  1  0  0  0  0
 12 13  2  0  0  0  0
 13 14  1  0  0  0  0
 14 15  2  0  0  0  0
 15 16  1  0  0  0  0
 11 16  2  0  0  0  0
 14 17  1  0  0  0  0
 17 18  2  0  0  0  0
 17 19  1  0  0  0  0
 19 20  2  0  0  0  0
 20 21  1  0  0  0  0
 13 21  1  0  0  0  0
 21 22  1  0  0  0  0
 22 23  1  0  0  0  0
 23 24  1  0  0  0  0
 22 24  1  0  0  0  0
 19 25  1  0  0  0  0
 25 26  2  0  0  0  0
 25 27  1  0  0  0  0
 12 28  1  0  0  0  0
 28 29  1  0  0  0  0
 29 30  1  0  0  0  0
 29 31  1  0  0  0  0
M  END
> <Molar mass [g/mol] [MProp:scalar:double]>
426.42

> <Exact mass [Da] [MProp:scalar:double]>
426.139113458

> <Formula>
C23H20F2N2O4

> <Composition>
C (64.78%), H (4.73%), F (8.91%), N (6.57%), O (15.01%)

> <Lipinski's rule of five [MProp:scalar:boolean]>
true

> <Atom count [MProp:scalar:integer]>
51

> <Heavy atom count [MProp:scalar:integer]>
31

> <Asymmetric atom count [MProp:scalar:integer]>
1

> <Rotatable bond count [MProp:scalar:integer]>
5

> <Ring count [MProp:scalar:integer]>
5

> <Aromatic ring count [MProp:scalar:integer]>
3

> <Hetero ring count [MProp:scalar:integer]>
2

> <FSP3 [MProp:scalar:double]>
0.3

> <Hydrogen bond donor count [MProp:scalar:integer]>
2

> <Hydrogen bond acceptor count [MProp:scalar:integer]>
6

> <Formal charge [MProp:scalar:integer]>
0

> <Topological polar surface area [A^2] [MProp:scalar:double]>
78.87

> <Polarizability [A^3] [MProp:scalar:double]>
42.43

> <Molar refractivity [cm^3/mol] [MProp:scalar:double]>
110.37

> <Van der Waals volume [A^3] [MProp:scalar:double]>
354.45

> <Minimum projection area [A^2] [MProp:scalar:double]>
51.84

> <Maximum projection area [A^2] [MProp:scalar:double]>
112.44

> <Minimum projection radius [A] [MProp:scalar:double]>
4.97

> <Maximum projection radius [A] [MProp:scalar:double]>
9.14

> <Van der Waals surface area [A^2] [MProp:scalar:double]>
542.66

> <Solvent accessible surface area [A^2] [MProp:scalar:double]>
577.42

> <Strongest acidic pKa [MProp:scalar:double]>
5.95

> <Strongest basic pKa [MProp:scalar:double]>
7.97

> <Isoelectric point [MProp:scalar:double]>
7.11

> <Intrinsic solubility [logS] [MProp:scalar:double]>
-4.74

> <Solubility category>
Low

> <logP [MProp:scalar:double]>
2.02

> <logD_PH0 [MProp:scalar:double]>
0.73

> <logD_PH1 [MProp:scalar:double]>
0.74

> <logD_PH2 [MProp:scalar:double]>
0.74

> <logD_PH3 [MProp:scalar:double]>
0.75

> <logD_PH4 [MProp:scalar:double]>
0.83

> <logD_PH5 [MProp:scalar:double]>
1.24

> <logD_PH6 [MProp:scalar:double]>
1.83

> <logD_PH7 [MProp:scalar:double]>
2.02

> <logD_PH8 [MProp:scalar:double]>
1.78

> <logD_PH9 [MProp:scalar:double]>
1.12

> <logD_PH10 [MProp:scalar:double]>
0.6

> <logD_PH11 [MProp:scalar:double]>
0.47

> <logD_PH12 [MProp:scalar:double]>
0.45

> <logD_PH13 [MProp:scalar:double]>
0.45

> <logD_PH14 [MProp:scalar:double]>
0.45

> <HLB [MProp:scalar:double]>
11.2

> <IUPAC name>
1-cyclopropyl-8-(difluoromethoxy)-7-[(1R)-1-methyl-2,3-dihydro-1H-isoindol-5-yl]-4-oxo-1,4-dihydroquinoline-3-carboxylic acid

> <SMILES>
C[C@H]1NCC2=C1C=CC(=C2)C1=CC=C2C(=O)C(=CN(C3CC3)C2=C1OC(F)F)C(O)=O

> <InChI>
InChI=1S/C23H20F2N2O4/c1-11-15-5-2-12(8-13(15)9-26-11)16-6-7-17-19(21(16)31-23(24)25)27(14-3-4-14)10-18(20(17)28)22(29)30/h2,5-8,10-11,14,23,26H,3-4,9H2,1H3,(H,29,30)/t11-/m1/s1

> <InChIKey>
NJDRXTDGYFKORP-LLVKDONJSA-N

> <Traditional name>
garenoxacin

> <Common names>
garenoxacin

> <CAS Registry Numbers(R)>
194804-75-6

$$$$
Gatifloxacin
  Mrv2222 01232613222D          

 27 30  0  0  0  0            999 V2000
   -2.1434    2.0625    0.0000 C   0  0  0  0  0  0  0  0  0  0  0  0
   -2.1434    1.2375    0.0000 C   0  0  0  0  0  0  0  0  0  0  0  0
   -1.4289    0.8250    0.0000 C   0  0  0  0  0  0  0  0  0  0  0  0
   -1.4289    0.0000    0.0000 N   0  0  0  0  0  0  0  0  0  0  0  0
   -2.1434   -0.4125    0.0000 C   0  0  0  0  0  0  0  0  0  0  0  0
   -2.8579    0.0000    0.0000 C   0  0  0  0  0  0  0  0  0  0  0  0
   -2.8579    0.8250    0.0000 N   0  0  0  0  0  0  0  0  0  0  0  0
   -0.7145   -0.4125    0.0000 C   0  0  0  0  0  0  0  0  0  0  0  0
   -0.7145   -1.2375    0.0000 C   0  0  0  0  0  0  0  0  0  0  0  0
    0.0000   -1.6500    0.0000 C   0  0  0  0  0  0  0  0  0  0  0  0
    0.7145   -1.2375    0.0000 C   0  0  0  0  0  0  0  0  0  0  0  0
    0.7145   -0.4125    0.0000 C   0  0  0  0  0  0  0  0  0  0  0  0
    0.0000    0.0000    0.0000 C   0  0  0  0  0  0  0  0  0  0  0  0
    0.0000    0.8250    0.0000 O   0  0  0  0  0  0  0  0  0  0  0  0
   -0.7145    1.2375    0.0000 C   0  0  0  0  0  0  0  0  0  0  0  0
    1.4289    0.0000    0.0000 N   0  0  0  0  0  0  0  0  0  0  0  0
    2.1434   -0.4125    0.0000 C   0  0  0  0  0  0  0  0  0  0  0  0
    2.1434   -1.2375    0.0000 C   0  0  0  0  0  0  0  0  0  0  0  0
    1.4289   -1.6500    0.0000 C   0  0  0  0  0  0  0  0  0  0  0  0
    1.4289   -2.4750    0.0000 O   0  0  0  0  0  0  0  0  0  0  0  0
    2.8579   -1.6500    0.0000 C   0  0  0  0  0  0  0  0  0  0  0  0
    3.5724   -1.2375    0.0000 O   0  0  0  0  0  0  0  0  0  0  0  0
    2.8579   -2.4750    0.0000 O   0  0  0  0  0  0  0  0  0  0  0  0
    1.4289    0.8250    0.0000 C   0  0  0  0  0  0  0  0  0  0  0  0
    1.0164    1.5395    0.0000 C   0  0  0  0  0  0  0  0  0  0  0  0
    1.8414    1.5395    0.0000 C   0  0  0  0  0  0  0  0  0  0  0  0
   -1.4289   -1.6500    0.0000 F   0  0  0  0  0  0  0  0  0  0  0  0
  1  2  1  0  0  0  0
  2  3  1  0  0  0  0
  3  4  1  0  0  0  0
  4  5  1  0  0  0  0
  5  6  1  0  0  0  0
  6  7  1  0  0  0  0
  2  7  1  0  0  0  0
  4  8  1  0  0  0  0
  8  9  2  0  0  0  0
  9 10  1  0  0  0  0
 10 11  2  0  0  0  0
 11 12  1  0  0  0  0
 12 13  2  0  0  0  0
  8 13  1  0  0  0  0
 13 14  1  0  0  0  0
 14 15  1  0  0  0  0
 12 16  1  0  0  0  0
 16 17  1  0  0  0  0
 17 18  2  0  0  0  0
 18 19  1  0  0  0  0
 11 19  1  0  0  0  0
 19 20  2  0  0  0  0
 18 21  1  0  0  0  0
 21 22  2  0  0  0  0
 21 23  1  0  0  0  0
 16 24  1  0  0  0  0
 24 25  1  0  0  0  0
 25 26  1  0  0  0  0
 24 26  1  0  0  0  0
  9 27  1  0  0  0  0
M  END
> <Molar mass [g/mol] [MProp:scalar:double]>
375.4

> <Exact mass [Da] [MProp:scalar:double]>
375.159434363

> <Formula>
C19H22FN3O4

> <Composition>
C (60.79%), H (5.91%), F (5.06%), N (11.19%), O (17.05%)

> <Lipinski's rule of five [MProp:scalar:boolean]>
true

> <Atom count [MProp:scalar:integer]>
49

> <Heavy atom count [MProp:scalar:integer]>
27

> <Asymmetric atom count [MProp:scalar:integer]>
1

> <Rotatable bond count [MProp:scalar:integer]>
4

> <Ring count [MProp:scalar:integer]>
4

> <Aromatic ring count [MProp:scalar:integer]>
2

> <Hetero ring count [MProp:scalar:integer]>
2

> <FSP3 [MProp:scalar:double]>
0.47

> <Hydrogen bond donor count [MProp:scalar:integer]>
2

> <Hydrogen bond acceptor count [MProp:scalar:integer]>
7

> <Formal charge [MProp:scalar:integer]>
0

> <Topological polar surface area [A^2] [MProp:scalar:double]>
82.11

> <Polarizability [A^3] [MProp:scalar:double]>
36.65

> <Molar refractivity [cm^3/mol] [MProp:scalar:double]>
98.82

> <Van der Waals volume [A^3] [MProp:scalar:double]>
326.54

> <Minimum projection area [A^2] [MProp:scalar:double]>
49.0

> <Maximum projection area [A^2] [MProp:scalar:double]>
108.14

> <Minimum projection radius [A] [MProp:scalar:double]>
5.01

> <Maximum projection radius [A] [MProp:scalar:double]>
8.39

> <Van der Waals surface area [A^2] [MProp:scalar:double]>
516.64

> <Solvent accessible surface area [A^2] [MProp:scalar:double]>
519.5

> <Strongest acidic pKa [MProp:scalar:double]>
5.89

> <Strongest basic pKa [MProp:scalar:double]>
8.74

> <Isoelectric point [MProp:scalar:double]>
7.46

> <Intrinsic solubility [logS] [MProp:scalar:double]>
-2.6

> <Solubility category>
High

> <logP [MProp:scalar:double]>
-0.54

> <logD_PH0 [MProp:scalar:double]>
-1.44

> <logD_PH1 [MProp:scalar:double]>
-1.43

> <logD_PH2 [MProp:scalar:double]>
-1.43

> <logD_PH3 [MProp:scalar:double]>
-1.43

> <logD_PH4 [MProp:scalar:double]>
-1.39

> <logD_PH5 [MProp:scalar:double]>
-1.16

> <logD_PH6 [MProp:scalar:double]>
-0.72

> <logD_PH7 [MProp:scalar:double]>
-0.54

> <logD_PH8 [MProp:scalar:double]>
-0.58

> <logD_PH9 [MProp:scalar:double]>
-0.91

> <logD_PH10 [MProp:scalar:double]>
-1.46

> <logD_PH11 [MProp:scalar:double]>
-1.68

> <logD_PH12 [MProp:scalar:double]>
-1.71

> <logD_PH13 [MProp:scalar:double]>
-1.72

> <logD_PH14 [MProp:scalar:double]>
-1.72

> <HLB [MProp:scalar:double]>
13.86

> <IUPAC name>
1-cyclopropyl-6-fluoro-8-methoxy-7-(3-methylpiperazin-1-yl)-4-oxo-1,4-dihydroquinoline-3-carboxylic acid

> <SMILES>
COC1=C2N(C=C(C(O)=O)C(=O)C2=CC(F)=C1N1CCNC(C)C1)C1CC1

> <InChI>
InChI=1/C19H22FN3O4/c1-10-8-22(6-5-21-10)16-14(20)7-12-15(18(16)27-2)23(11-3-4-11)9-13(17(12)24)19(25)26/h7,9-11,21H,3-6,8H2,1-2H3,(H,25,26)

> <InChIKey>
XUBOMFCQGDBHNK-UHFFFAOYNA-N

> <Traditional name>
gatifloxacin

> <Common names>
(+-)-gatifloxacin; (+-)-isomer gatifloxacin; gaity; gatiflo; gatifloxacin; gatifloxacin (product); gatifloxacin (substance); gatifloxacin preparation; gatifloxacin, (+-)-; gatifloxacin, (+-)-isomer; gatifloxacine; gatilox; gatiquin; gatispan; tequin; zymar; 加替沙星

> <CAS Registry Numbers(R)>
112811-59-3, 160738-57-8, 160738-57-8

$$$$
Gemifloxacin
  Mrv2222 01232613222D          

 28 31  0  0  0  0            999 V2000
   -3.2822   -1.0014    0.0000 C   0  0  0  0  0  0  0  0  0  0  0  0
   -2.4617   -1.0876    0.0000 O   0  0  0  0  0  0  0  0  0  0  0  0
   -2.1262   -1.8413    0.0000 N   0  0  0  0  0  0  0  0  0  0  0  0
   -1.3057   -1.9275    0.0000 C   0  0  0  0  0  0  0  0  0  0  0  0
   -0.7537   -1.3144    0.0000 C   0  0  0  0  0  0  0  0  0  0  0  0
    0.0000   -1.6500    0.0000 N   0  0  0  0  0  0  0  0  0  0  0  0
   -0.0862   -2.4705    0.0000 C   0  0  0  0  0  0  0  0  0  0  0  0
   -0.8932   -2.6420    0.0000 C   0  0  0  0  0  0  0  0  0  0  0  0
   -1.2288   -3.3957    0.0000 C   0  0  0  0  0  0  0  0  0  0  0  0
   -2.0492   -3.4819    0.0000 N   0  0  0  0  0  0  0  0  0  0  0  0
    0.7145   -1.2375    0.0000 C   0  0  0  0  0  0  0  0  0  0  0  0
    0.7145   -0.4125    0.0000 C   0  0  0  0  0  0  0  0  0  0  0  0
    1.4289    0.0000    0.0000 C   0  0  0  0  0  0  0  0  0  0  0  0
    2.1434   -0.4125    0.0000 C   0  0  0  0  0  0  0  0  0  0  0  0
    2.8579    0.0000    0.0000 C   0  0  0  0  0  0  0  0  0  0  0  0
    2.8579    0.8250    0.0000 O   0  0  0  0  0  0  0  0  0  0  0  0
    3.5724   -0.4125    0.0000 C   0  0  0  0  0  0  0  0  0  0  0  0
    3.5724   -1.2375    0.0000 C   0  0  0  0  0  0  0  0  0  0  0  0
    2.8579   -1.6500    0.0000 N   0  0  0  0  0  0  0  0  0  0  0  0
    2.1434   -1.2375    0.0000 C   0  0  0  0  0  0  0  0  0  0  0  0
    1.4289   -1.6500    0.0000 N   0  0  0  0  0  0  0  0  0  0  0  0
    2.8579   -2.4750    0.0000 C   0  0  0  0  0  0  0  0  0  0  0  0
    3.2704   -3.1895    0.0000 C   0  0  0  0  0  0  0  0  0  0  0  0
    2.4454   -3.1895    0.0000 C   0  0  0  0  0  0  0  0  0  0  0  0
    4.2868    0.0000    0.0000 C   0  0  0  0  0  0  0  0  0  0  0  0
    4.2868    0.8250    0.0000 O   0  0  0  0  0  0  0  0  0  0  0  0
    5.0013   -0.4125    0.0000 O   0  0  0  0  0  0  0  0  0  0  0  0
    0.0000    0.0000    0.0000 F   0  0  0  0  0  0  0  0  0  0  0  0
  1  2  1  0  0  0  0
  2  3  1  0  0  0  0
  3  4  2  0  0  0  0
  4  5  1  0  0  0  0
  5  6  1  0  0  0  0
  6  7  1  0  0  0  0
  7  8  1  0  0  0  0
  4  8  1  0  0  0  0
  8  9  1  0  0  0  0
  9 10  1  0  0  0  0
  6 11  1  0  0  0  0
 11 12  2  0  0  0  0
 12 13  1  0  0  0  0
 13 14  2  0  0  0  0
 14 15  1  0  0  0  0
 15 16  2  0  0  0  0
 15 17  1  0  0  0  0
 17 18  2  0  0  0  0
 18 19  1  0  0  0  0
 19 20  1  0  0  0  0
 14 20  1  0  0  0  0
 20 21  2  0  0  0  0
 11 21  1  0  0  0  0
 19 22  1  0  0  0  0
 22 23  1  0  0  0  0
 23 24  1  0  0  0  0
 22 24  1  0  0  0  0
 17 25  1  0  0  0  0
 25 26  2  0  0  0  0
 25 27  1  0  0  0  0
 12 28  1  0  0  0  0
M  END
> <Molar mass [g/mol] [MProp:scalar:double]>
389.387

> <Exact mass [Da] [MProp:scalar:double]>
389.149932307

> <Formula>
C18H20FN5O4

> <Composition>
C (55.52%), H (5.18%), F (4.88%), N (17.99%), O (16.44%)

> <Lipinski's rule of five [MProp:scalar:boolean]>
true

> <Atom count [MProp:scalar:integer]>
48

> <Heavy atom count [MProp:scalar:integer]>
28

> <Asymmetric atom count [MProp:scalar:integer]>
1

> <Rotatable bond count [MProp:scalar:integer]>
5

> <Ring count [MProp:scalar:integer]>
4

> <Aromatic ring count [MProp:scalar:integer]>
2

> <Hetero ring count [MProp:scalar:integer]>
3

> <FSP3 [MProp:scalar:double]>
0.44

> <Hydrogen bond donor count [MProp:scalar:integer]>
2

> <Hydrogen bond acceptor count [MProp:scalar:integer]>
9

> <Formal charge [MProp:scalar:integer]>
0

> <Topological polar surface area [A^2] [MProp:scalar:double]>
121.35

> <Polarizability [A^3] [MProp:scalar:double]>
36.58

> <Molar refractivity [cm^3/mol] [MProp:scalar:double]>
99.74

> <Van der Waals volume [A^3] [MProp:scalar:double]>
325.23

> <Minimum projection area [A^2] [MProp:scalar:double]>
47.57

> <Maximum projection area [A^2] [MProp:scalar:double]>
115.93

> <Minimum projection radius [A] [MProp:scalar:double]>
5.42

> <Maximum projection radius [A] [MProp:scalar:double]>
8.49

> <Van der Waals surface area [A^2] [MProp:scalar:double]>
507.17

> <Solvent accessible surface area [A^2] [MProp:scalar:double]>
600.83

> <Strongest acidic pKa [MProp:scalar:double]>
5.73

> <Strongest basic pKa [MProp:scalar:double]>
9.31

> <Isoelectric point [MProp:scalar:double]>
7.67

> <Intrinsic solubility [logS] [MProp:scalar:double]>
-2.99

> <Solubility category>
High

> <logP [MProp:scalar:double]>
-0.91

> <logD_PH0 [MProp:scalar:double]>
-4.04

> <logD_PH1 [MProp:scalar:double]>
-3.26

> <logD_PH2 [MProp:scalar:double]>
-2.42

> <logD_PH3 [MProp:scalar:double]>
-1.84

> <logD_PH4 [MProp:scalar:double]>
-1.67

> <logD_PH5 [MProp:scalar:double]>
-1.43

> <logD_PH6 [MProp:scalar:double]>
-1.05

> <logD_PH7 [MProp:scalar:double]>
-0.91

> <logD_PH8 [MProp:scalar:double]>
-0.91

> <logD_PH9 [MProp:scalar:double]>
-1.05

> <logD_PH10 [MProp:scalar:double]>
-1.56

> <logD_PH11 [MProp:scalar:double]>
-2.04

> <logD_PH12 [MProp:scalar:double]>
-2.16

> <logD_PH13 [MProp:scalar:double]>
-2.18

> <logD_PH14 [MProp:scalar:double]>
-2.18

> <HLB [MProp:scalar:double]>
13.65

> <IUPAC name>
7-[(4Z)-3-(aminomethyl)-4-(methoxyimino)pyrrolidin-1-yl]-1-cyclopropyl-6-fluoro-4-oxo-1,4-dihydro-1,8-naphthyridine-3-carboxylic acid

> <SMILES>
CO\N=C1/CN(CC1CN)C1=C(F)C=C2C(=O)C(=CN(C3CC3)C2=N1)C(O)=O

> <InChI>
InChI=1/C18H20FN5O4/c1-28-22-14-8-23(6-9(14)5-20)17-13(19)4-11-15(25)12(18(26)27)7-24(10-2-3-10)16(11)21-17/h4,7,9-10H,2-3,5-6,8,20H2,1H3,(H,26,27)/b22-14+

> <InChIKey>
ZRCVYEYHRGVLOC-HYARGMPZNA-N

> <Traditional name>
gemifloxacin

> <Common names>
gemifloxacin

> <CAS Registry Numbers(R)>
175463-14-6, 1073254-49-5, 204519-64-2

$$$$
Grepafloxacin
  Mrv2222 01232613222D          

 26 29  0  0  0  0            999 V2000
   -2.1434    2.0625    0.0000 C   0  0  0  0  0  0  0  0  0  0  0  0
   -2.1434    1.2375    0.0000 C   0  0  0  0  0  0  0  0  0  0  0  0
   -1.4289    0.8250    0.0000 C   0  0  0  0  0  0  0  0  0  0  0  0
   -1.4289    0.0000    0.0000 N   0  0  0  0  0  0  0  0  0  0  0  0
   -2.1434   -0.4125    0.0000 C   0  0  0  0  0  0  0  0  0  0  0  0
   -2.8579    0.0000    0.0000 C   0  0  0  0  0  0  0  0  0  0  0  0
   -2.8579    0.8250    0.0000 N   0  0  0  0  0  0  0  0  0  0  0  0
   -0.7145   -0.4125    0.0000 C   0  0  0  0  0  0  0  0  0  0  0  0
   -0.7145   -1.2375    0.0000 C   0  0  0  0  0  0  0  0  0  0  0  0
    0.0000   -1.6500    0.0000 C   0  0  0  0  0  0  0  0  0  0  0  0
    0.7145   -1.2375    0.0000 C   0  0  0  0  0  0  0  0  0  0  0  0
    0.7145   -0.4125    0.0000 C   0  0  0  0  0  0  0  0  0  0  0  0
    0.0000    0.0000    0.0000 C   0  0  0  0  0  0  0  0  0  0  0  0
    1.4289    0.0000    0.0000 N   0  0  0  0  0  0  0  0  0  0  0  0
    2.1434   -0.4125    0.0000 C   0  0  0  0  0  0  0  0  0  0  0  0
    2.1434   -1.2375    0.0000 C   0  0  0  0  0  0  0  0  0  0  0  0
    1.4289   -1.6500    0.0000 C   0  0  0  0  0  0  0  0  0  0  0  0
    1.4289   -2.4750    0.0000 O   0  0  0  0  0  0  0  0  0  0  0  0
    2.8579   -1.6500    0.0000 C   0  0  0  0  0  0  0  0  0  0  0  0
    3.5724   -1.2375    0.0000 O   0  0  0  0  0  0  0  0  0  0  0  0
    2.8579   -2.4750    0.0000 O   0  0  0  0  0  0  0  0  0  0  0  0
    1.4289    0.8250    0.0000 C   0  0  0  0  0  0  0  0  0  0  0  0
    1.0164    1.5395    0.0000 C   0  0  0  0  0  0  0  0  0  0  0  0
    1.8414    1.5395    0.0000 C   0  0  0  0  0  0  0  0  0  0  0  0
    0.0000   -2.4750    0.0000 C   0  0  0  0  0  0  0  0  0  0  0  0
   -1.4289   -1.6500    0.0000 F   0  0  0  0  0  0  0  0  0  0  0  0
  1  2  1  0  0  0  0
  2  3  1  0  0  0  0
  3  4  1  0  0  0  0
  4  5  1  0  0  0  0
  5  6  1  0  0  0  0
  6  7  1  0  0  0  0
  2  7  1  0  0  0  0
  4  8  1  0  0  0  0
  8  9  2  0  0  0  0
  9 10  1  0  0  0  0
 10 11  2  0  0  0  0
 11 12  1  0  0  0  0
 12 13  2  0  0  0  0
  8 13  1  0  0  0  0
 12 14  1  0  0  0  0
 14 15  1  0  0  0  0
 15 16  2  0  0  0  0
 16 17  1  0  0  0  0
 11 17  1  0  0  0  0
 17 18  2  0  0  0  0
 16 19  1  0  0  0  0
 19 20  2  0  0  0  0
 19 21  1  0  0  0  0
 14 22  1  0  0  0  0
 22 23  1  0  0  0  0
 23 24  1  0  0  0  0
 22 24  1  0  0  0  0
 10 25  1  0  0  0  0
  9 26  1  0  0  0  0
M  END
> <Molar mass [g/mol] [MProp:scalar:double]>
359.401

> <Exact mass [Da] [MProp:scalar:double]>
359.164519743

> <Formula>
C19H22FN3O3

> <Composition>
C (63.50%), H (6.17%), F (5.29%), N (11.69%), O (13.35%)

> <Lipinski's rule of five [MProp:scalar:boolean]>
true

> <Atom count [MProp:scalar:integer]>
48

> <Heavy atom count [MProp:scalar:integer]>
26

> <Asymmetric atom count [MProp:scalar:integer]>
1

> <Rotatable bond count [MProp:scalar:integer]>
3

> <Ring count [MProp:scalar:integer]>
4

> <Aromatic ring count [MProp:scalar:integer]>
2

> <Hetero ring count [MProp:scalar:integer]>
2

> <FSP3 [MProp:scalar:double]>
0.47

> <Hydrogen bond donor count [MProp:scalar:integer]>
2

> <Hydrogen bond acceptor count [MProp:scalar:integer]>
6

> <Formal charge [MProp:scalar:integer]>
0

> <Topological polar surface area [A^2] [MProp:scalar:double]>
72.88

> <Polarizability [A^3] [MProp:scalar:double]>
35.85

> <Molar refractivity [cm^3/mol] [MProp:scalar:double]>
97.4

> <Van der Waals volume [A^3] [MProp:scalar:double]>
317.48

> <Minimum projection area [A^2] [MProp:scalar:double]>
48.04

> <Maximum projection area [A^2] [MProp:scalar:double]>
110.93

> <Minimum projection radius [A] [MProp:scalar:double]>
5.74

> <Maximum projection radius [A] [MProp:scalar:double]>
8.41

> <Van der Waals surface area [A^2] [MProp:scalar:double]>
499.9

> <Solvent accessible surface area [A^2] [MProp:scalar:double]>
542.69

> <Strongest acidic pKa [MProp:scalar:double]>
6.08

> <Strongest basic pKa [MProp:scalar:double]>
8.8

> <Isoelectric point [MProp:scalar:double]>
7.59

> <Intrinsic solubility [logS] [MProp:scalar:double]>
-2.9

> <Solubility category>
High

> <logP [MProp:scalar:double]>
0.16

> <logD_PH0 [MProp:scalar:double]>
-1.1

> <logD_PH1 [MProp:scalar:double]>
-0.81

> <logD_PH2 [MProp:scalar:double]>
-0.76

> <logD_PH3 [MProp:scalar:double]>
-0.76

> <logD_PH4 [MProp:scalar:double]>
-0.73

> <logD_PH5 [MProp:scalar:double]>
-0.54

> <logD_PH6 [MProp:scalar:double]>
-0.08

> <logD_PH7 [MProp:scalar:double]>
0.16

> <logD_PH8 [MProp:scalar:double]>
0.14

> <logD_PH9 [MProp:scalar:double]>
-0.17

> <logD_PH10 [MProp:scalar:double]>
-0.74

> <logD_PH11 [MProp:scalar:double]>
-1.0

> <logD_PH12 [MProp:scalar:double]>
-1.04

> <logD_PH13 [MProp:scalar:double]>
-1.05

> <logD_PH14 [MProp:scalar:double]>
-1.05

> <HLB [MProp:scalar:double]>
12.38

> <IUPAC name>
1-cyclopropyl-6-fluoro-5-methyl-7-(3-methylpiperazin-1-yl)-4-oxo-1,4-dihydroquinoline-3-carboxylic acid

> <SMILES>
CC1CN(CCN1)C1=C(F)C(C)=C2C(=O)C(=CN(C3CC3)C2=C1)C(O)=O

> <InChI>
InChI=1/C19H22FN3O3/c1-10-8-22(6-5-21-10)15-7-14-16(11(2)17(15)20)18(24)13(19(25)26)9-23(14)12-3-4-12/h7,9-10,12,21H,3-6,8H2,1-2H3,(H,25,26)

> <InChIKey>
AIJTTZAVMXIJGM-UHFFFAOYNA-N

> <Traditional name>
grepafloxacin

> <Common names>
grepafloxacin; grepafloxacin (product); grepafloxacin (substance); grepafloxacin preparation; grepafloxacin product; raxar; 格帕沙星

> <CAS Registry Numbers(R)>
119914-60-2, 146863-02-7

$$$$
Levofloxacin
  Mrv2222 01232613222D          

 26 29  0  0  1  0            999 V2000
   -1.4289    0.0000    0.0000 C   0  0  0  0  0  0  0  0  0  0  0  0
   -0.7145   -0.4125    0.0000 C   0  0  1  0  0  0  0  0  0  0  0  0
   -0.7145   -1.2375    0.0000 C   0  0  0  0  0  0  0  0  0  0  0  0
    0.0000   -1.6500    0.0000 O   0  0  0  0  0  0  0  0  0  0  0  0
    0.7145   -1.2375    0.0000 C   0  0  0  0  0  0  0  0  0  0  0  0
    0.7145   -0.4125    0.0000 C   0  0  0  0  0  0  0  0  0  0  0  0
    0.0000    0.0000    0.0000 N   0  0  0  0  0  0  0  0  0  0  0  0
    0.0000    0.8250    0.0000 C   0  0  0  0  0  0  0  0  0  0  0  0
    0.7145    1.2375    0.0000 C   0  0  0  0  0  0  0  0  0  0  0  0
    1.4289    0.8250    0.0000 C   0  0  0  0  0  0  0  0  0  0  0  0
    2.1434    1.2375    0.0000 O   0  0  0  0  0  0  0  0  0  0  0  0
    1.4289    0.0000    0.0000 C   0  0  0  0  0  0  0  0  0  0  0  0
    2.1434   -0.4125    0.0000 C   0  0  0  0  0  0  0  0  0  0  0  0
    2.1434   -1.2375    0.0000 C   0  0  0  0  0  0  0  0  0  0  0  0
    1.4289   -1.6500    0.0000 C   0  0  0  0  0  0  0  0  0  0  0  0
    1.4289   -2.4750    0.0000 N   0  0  0  0  0  0  0  0  0  0  0  0
    2.1434   -2.8875    0.0000 C   0  0  0  0  0  0  0  0  0  0  0  0
    2.1434   -3.7125    0.0000 C   0  0  0  0  0  0  0  0  0  0  0  0
    1.4289   -4.1250    0.0000 N   0  0  0  0  0  0  0  0  0  0  0  0
    0.7145   -3.7125    0.0000 C   0  0  0  0  0  0  0  0  0  0  0  0
    0.7145   -2.8875    0.0000 C   0  0  0  0  0  0  0  0  0  0  0  0
    1.4289   -4.9500    0.0000 C   0  0  0  0  0  0  0  0  0  0  0  0
    2.8579   -1.6500    0.0000 F   0  0  0  0  0  0  0  0  0  0  0  0
    0.7145    2.0625    0.0000 C   0  0  0  0  0  0  0  0  0  0  0  0
    0.0000    2.4750    0.0000 O   0  0  0  0  0  0  0  0  0  0  0  0
    1.4289    2.4750    0.0000 O   0  0  0  0  0  0  0  0  0  0  0  0
  2  1  1  6  0  0  0
  2  3  1  0  0  0  0
  3  4  1  0  0  0  0
  4  5  1  0  0  0  0
  5  6  2  0  0  0  0
  6  7  1  0  0  0  0
  2  7  1  0  0  0  0
  7  8  1  0  0  0  0
  8  9  2  0  0  0  0
  9 10  1  0  0  0  0
 10 11  2  0  0  0  0
 10 12  1  0  0  0  0
  6 12  1  0  0  0  0
 12 13  2  0  0  0  0
 13 14  1  0  0  0  0
 14 15  2  0  0  0  0
  5 15  1  0  0  0  0
 15 16  1  0  0  0  0
 16 17  1  0  0  0  0
 17 18  1  0  0  0  0
 18 19  1  0  0  0  0
 19 20  1  0  0  0  0
 20 21  1  0  0  0  0
 16 21  1  0  0  0  0
 19 22  1  0  0  0  0
 14 23  1  0  0  0  0
  9 24  1  0  0  0  0
 24 25  2  0  0  0  0
 24 26  1  0  0  0  0
M  END
> <Molar mass [g/mol] [MProp:scalar:double]>
361.373

> <Exact mass [Da] [MProp:scalar:double]>
361.143784299

> <Formula>
C18H20FN3O4

> <Composition>
C (59.83%), H (5.58%), F (5.26%), N (11.63%), O (17.71%)

> <Lipinski's rule of five [MProp:scalar:boolean]>
true

> <Atom count [MProp:scalar:integer]>
46

> <Heavy atom count [MProp:scalar:integer]>
26

> <Asymmetric atom count [MProp:scalar:integer]>
1

> <Rotatable bond count [MProp:scalar:integer]>
2

> <Ring count [MProp:scalar:integer]>
4

> <Aromatic ring count [MProp:scalar:integer]>
2

> <Hetero ring count [MProp:scalar:integer]>
3

> <FSP3 [MProp:scalar:double]>
0.44

> <Hydrogen bond donor count [MProp:scalar:integer]>
1

> <Hydrogen bond acceptor count [MProp:scalar:integer]>
7

> <Formal charge [MProp:scalar:integer]>
0

> <Topological polar surface area [A^2] [MProp:scalar:double]>
73.32

> <Polarizability [A^3] [MProp:scalar:double]>
34.82

> <Molar refractivity [cm^3/mol] [MProp:scalar:double]>
94.94

> <Van der Waals volume [A^3] [MProp:scalar:double]>
309.8

> <Minimum projection area [A^2] [MProp:scalar:double]>
44.64

> <Maximum projection area [A^2] [MProp:scalar:double]>
101.07

> <Minimum projection radius [A] [MProp:scalar:double]>
5.06

> <Maximum projection radius [A] [MProp:scalar:double]>
8.21

> <Van der Waals surface area [A^2] [MProp:scalar:double]>
487.4

> <Solvent accessible surface area [A^2] [MProp:scalar:double]>
519.82

> <Strongest acidic pKa [MProp:scalar:double]>
5.77

> <Strongest basic pKa [MProp:scalar:double]>
8.31

> <Isoelectric point [MProp:scalar:double]>
7.19

> <Intrinsic solubility [logS] [MProp:scalar:double]>
-2.25

> <Solubility category>
High

> <logP [MProp:scalar:double]>
-0.8

> <logD_PH0 [MProp:scalar:double]>
-1.94

> <logD_PH1 [MProp:scalar:double]>
-1.94

> <logD_PH2 [MProp:scalar:double]>
-1.94

> <logD_PH3 [MProp:scalar:double]>
-1.93

> <logD_PH4 [MProp:scalar:double]>
-1.85

> <logD_PH5 [MProp:scalar:double]>
-1.46

> <logD_PH6 [MProp:scalar:double]>
-0.95

> <logD_PH7 [MProp:scalar:double]>
-0.8

> <logD_PH8 [MProp:scalar:double]>
-0.92

> <logD_PH9 [MProp:scalar:double]>
-1.42

> <logD_PH10 [MProp:scalar:double]>
-1.86

> <logD_PH11 [MProp:scalar:double]>
-1.96

> <logD_PH12 [MProp:scalar:double]>
-1.97

> <logD_PH13 [MProp:scalar:double]>
-1.97

> <logD_PH14 [MProp:scalar:double]>
-1.97

> <HLB [MProp:scalar:double]>
14.68

> <IUPAC name>
(2S)-7-fluoro-2-methyl-6-(4-methylpiperazin-1-yl)-10-oxo-4-oxa-1-azatricyclo[7.3.1.0⁵,¹³]trideca-5(13),6,8,11-tetraene-11-carboxylic acid

> <SMILES>
C[C@H]1COC2=C3N1C=C(C(O)=O)C(=O)C3=CC(F)=C2N1CCN(C)CC1

> <InChI>
InChI=1S/C18H20FN3O4/c1-10-9-26-17-14-11(16(23)12(18(24)25)8-22(10)14)7-13(19)15(17)21-5-3-20(2)4-6-21/h7-8,10H,3-6,9H2,1-2H3,(H,24,25)/t10-/m0/s1

> <InChIKey>
GSDSWSVVBLHKDQ-JTQLQIEISA-N

> <Traditional name>
levofloxacin

> <Common names>
(-)-ofloxacin; (S)-(-)-ofloxacin; (S)-ofloxacin; L-ofloxacin; LVFX; cravit; cravit ophthalmic; elequine; floxel; floxin; iquix; leroxacin; lesacin; levaquin; levofloxacin; levofloxacin hydrate; levofloxacine; levofloxacino; levofloxacinum; levokacin; levox; levoxacin; mosardal; nofaxin; ofloxacin S-(-)-form; quixin; reskuin; tavanic; volequin

> <CAS Registry Numbers(R)>
100986-85-4

$$$$
Lomefloxacin
  Mrv2222 01232613222D          

 25 27  0  0  0  0            999 V2000
    2.1434   -2.8875    0.0000 C   0  0  0  0  0  0  0  0  0  0  0  0
    1.4289   -2.4750    0.0000 C   0  0  0  0  0  0  0  0  0  0  0  0
    1.4289   -1.6500    0.0000 N   0  0  0  0  0  0  0  0  0  0  0  0
    0.7145   -1.2375    0.0000 C   0  0  0  0  0  0  0  0  0  0  0  0
    0.7145   -0.4125    0.0000 C   0  0  0  0  0  0  0  0  0  0  0  0
    1.4289    0.0000    0.0000 C   0  0  0  0  0  0  0  0  0  0  0  0
    1.4289    0.8250    0.0000 O   0  0  0  0  0  0  0  0  0  0  0  0
    2.1434   -0.4125    0.0000 C   0  0  0  0  0  0  0  0  0  0  0  0
    2.8579    0.0000    0.0000 C   0  0  0  0  0  0  0  0  0  0  0  0
    3.5724   -0.4125    0.0000 C   0  0  0  0  0  0  0  0  0  0  0  0
    3.5724   -1.2375    0.0000 C   0  0  0  0  0  0  0  0  0  0  0  0
    2.8579   -1.6500    0.0000 C   0  0  0  0  0  0  0  0  0  0  0  0
    2.1434   -1.2375    0.0000 C   0  0  0  0  0  0  0  0  0  0  0  0
    2.8579   -2.4750    0.0000 F   0  0  0  0  0  0  0  0  0  0  0  0
    4.2868   -1.6500    0.0000 N   0  0  0  0  0  0  0  0  0  0  0  0
    5.0013   -1.2375    0.0000 C   0  0  0  0  0  0  0  0  0  0  0  0
    5.7158   -1.6500    0.0000 C   0  0  0  0  0  0  0  0  0  0  0  0
    5.7158   -2.4750    0.0000 N   0  0  0  0  0  0  0  0  0  0  0  0
    5.0013   -2.8875    0.0000 C   0  0  0  0  0  0  0  0  0  0  0  0
    4.2868   -2.4750    0.0000 C   0  0  0  0  0  0  0  0  0  0  0  0
    5.0013   -3.7125    0.0000 C   0  0  0  0  0  0  0  0  0  0  0  0
    4.2868    0.0000    0.0000 F   0  0  0  0  0  0  0  0  0  0  0  0
    0.0000    0.0000    0.0000 C   0  0  0  0  0  0  0  0  0  0  0  0
   -0.7145   -0.4125    0.0000 O   0  0  0  0  0  0  0  0  0  0  0  0
    0.0000    0.8250    0.0000 O   0  0  0  0  0  0  0  0  0  0  0  0
  1  2  1  0  0  0  0
  2  3  1  0  0  0  0
  3  4  1  0  0  0  0
  4  5  2  0  0  0  0
  5  6  1  0  0  0  0
  6  7  2  0  0  0  0
  6  8  1  0  0  0  0
  8  9  2  0  0  0  0
  9 10  1  0  0  0  0
 10 11  2  0  0  0  0
 11 12  1  0  0  0  0
 12 13  2  0  0  0  0
  8 13  1  0  0  0  0
  3 13  1  0  0  0  0
 12 14  1  0  0  0  0
 11 15  1  0  0  0  0
 15 16  1  0  0  0  0
 16 17  1  0  0  0  0
 17 18  1  0  0  0  0
 18 19  1  0  0  0  0
 19 20  1  0  0  0  0
 15 20  1  0  0  0  0
 19 21  1  0  0  0  0
 10 22  1  0  0  0  0
  5 23  1  0  0  0  0
 23 24  2  0  0  0  0
 23 25  1  0  0  0  0
M  END
> <Molar mass [g/mol] [MProp:scalar:double]>
351.354

> <Exact mass [Da] [MProp:scalar:double]>
351.13944781

> <Formula>
C17H19F2N3O3

> <Composition>
C (58.11%), H (5.45%), F (10.81%), N (11.96%), O (13.66%)

> <Lipinski's rule of five [MProp:scalar:boolean]>
true

> <Atom count [MProp:scalar:integer]>
44

> <Heavy atom count [MProp:scalar:integer]>
25

> <Asymmetric atom count [MProp:scalar:integer]>
1

> <Rotatable bond count [MProp:scalar:integer]>
3

> <Ring count [MProp:scalar:integer]>
3

> <Aromatic ring count [MProp:scalar:integer]>
2

> <Hetero ring count [MProp:scalar:integer]>
2

> <FSP3 [MProp:scalar:double]>
0.41

> <Hydrogen bond donor count [MProp:scalar:integer]>
2

> <Hydrogen bond acceptor count [MProp:scalar:integer]>
6

> <Formal charge [MProp:scalar:integer]>
0

> <Topological polar surface area [A^2] [MProp:scalar:double]>
72.88

> <Polarizability [A^3] [MProp:scalar:double]>
32.75

> <Molar refractivity [cm^3/mol] [MProp:scalar:double]>
90.11

> <Van der Waals volume [A^3] [MProp:scalar:double]>
299.54

> <Minimum projection area [A^2] [MProp:scalar:double]>
47.87

> <Maximum projection area [A^2] [MProp:scalar:double]>
97.88

> <Minimum projection radius [A] [MProp:scalar:double]>
4.96

> <Maximum projection radius [A] [MProp:scalar:double]>
7.92

> <Van der Waals surface area [A^2] [MProp:scalar:double]>
470.7

> <Solvent accessible surface area [A^2] [MProp:scalar:double]>
515.67

> <Strongest acidic pKa [MProp:scalar:double]>
6.24

> <Strongest basic pKa [MProp:scalar:double]>
8.69

> <Isoelectric point [MProp:scalar:double]>
7.61

> <Intrinsic solubility [logS] [MProp:scalar:double]>
-2.68

> <Solubility category>
High

> <logP [MProp:scalar:double]>
-0.22

> <logD_PH0 [MProp:scalar:double]>
-1.24

> <logD_PH1 [MProp:scalar:double]>
-1.24

> <logD_PH2 [MProp:scalar:double]>
-1.24

> <logD_PH3 [MProp:scalar:double]>
-1.24

> <logD_PH4 [MProp:scalar:double]>
-1.21

> <logD_PH5 [MProp:scalar:double]>
-1.03

> <logD_PH6 [MProp:scalar:double]>
-0.53

> <logD_PH7 [MProp:scalar:double]>
-0.22

> <logD_PH8 [MProp:scalar:double]>
-0.23

> <logD_PH9 [MProp:scalar:double]>
-0.6

> <logD_PH10 [MProp:scalar:double]>
-1.21

> <logD_PH11 [MProp:scalar:double]>
-1.48

> <logD_PH12 [MProp:scalar:double]>
-1.52

> <logD_PH13 [MProp:scalar:double]>
-1.52

> <logD_PH14 [MProp:scalar:double]>
-1.53

> <HLB [MProp:scalar:double]>
13.37

> <IUPAC name>
1-ethyl-6,8-difluoro-7-(3-methylpiperazin-1-yl)-4-oxo-1,4-dihydroquinoline-3-carboxylic acid

> <SMILES>
CCN1C=C(C(O)=O)C(=O)C2=CC(F)=C(N3CCNC(C)C3)C(F)=C12

> <InChI>
InChI=1/C17H19F2N3O3/c1-3-21-8-11(17(24)25)16(23)10-6-12(18)15(13(19)14(10)21)22-5-4-20-9(2)7-22/h6,8-9,20H,3-5,7H2,1-2H3,(H,24,25)

> <InChIKey>
ZEKZLJVOYLTDKK-UHFFFAOYNA-N

> <Traditional name>
lomefloxacin

> <Common names>
LFLX; bareon; decalogiflox; décalogiflox; logiflox; lomefloxacin; lomefloxacin (product); lomefloxacin (substance); lomefloxacin preparation; lomefloxacine; lomefloxacino; lomefloxacinum; lomenfloxacin; maxaquin; ocacin; okacin; okacyn; 洛美沙星

> <CAS Registry Numbers(R)>
98079-51-7

$$$$
Moxifloxacin
  Mrv2222 01232613222D          

 29 33  0  0  1  0            999 V2000
   -0.7018   -1.7478    0.0000 C   0  0  0  0  0  0  0  0  0  0  0  0
   -1.5268   -1.7478    0.0000 O   0  0  0  0  0  0  0  0  0  0  0  0
   -1.9393   -2.4623    0.0000 C   0  0  0  0  0  0  0  0  0  0  0  0
   -2.7643   -2.4623    0.0000 C   0  0  0  0  0  0  0  0  0  0  0  0
   -3.1768   -3.1768    0.0000 C   0  0  0  0  0  0  0  0  0  0  0  0
   -2.7643   -3.8913    0.0000 C   0  0  0  0  0  0  0  0  0  0  0  0
   -1.9393   -3.8913    0.0000 C   0  0  0  0  0  0  0  0  0  0  0  0
   -1.5268   -3.1768    0.0000 C   0  0  0  0  0  0  0  0  0  0  0  0
   -0.7018   -3.1768    0.0000 N   0  0  0  0  0  0  0  0  0  0  0  0
   -0.2169   -2.5093    0.0000 C   0  0  0  0  0  0  0  0  0  0  0  0
    0.5678   -2.7643    0.0000 C   0  0  2  0  0  0  0  0  0  0  0  0
    1.2822   -2.3518    0.0000 C   0  0  0  0  0  0  0  0  0  0  0  0
    1.9967   -2.7643    0.0000 C   0  0  0  0  0  0  0  0  0  0  0  0
    1.9967   -3.5893    0.0000 C   0  0  0  0  0  0  0  0  0  0  0  0
    1.2822   -4.0018    0.0000 N   0  0  0  0  0  0  0  0  0  0  0  0
    0.5678   -3.5893    0.0000 C   0  0  2  0  0  0  0  0  0  0  0  0
   -0.2169   -3.8442    0.0000 C   0  0  0  0  0  0  0  0  0  0  0  0
   -1.5268   -4.6057    0.0000 F   0  0  0  0  0  0  0  0  0  0  0  0
   -4.0018   -3.1768    0.0000 C   0  0  0  0  0  0  0  0  0  0  0  0
   -4.4143   -3.8913    0.0000 O   0  0  0  0  0  0  0  0  0  0  0  0
   -4.4143   -2.4623    0.0000 C   0  0  0  0  0  0  0  0  0  0  0  0
   -4.0018   -1.7478    0.0000 C   0  0  0  0  0  0  0  0  0  0  0  0
   -3.1768   -1.7478    0.0000 N   0  0  0  0  0  0  0  0  0  0  0  0
   -2.7643   -1.0334    0.0000 C   0  0  0  0  0  0  0  0  0  0  0  0
   -2.7643   -0.2084    0.0000 C   0  0  0  0  0  0  0  0  0  0  0  0
   -2.0498   -0.6209    0.0000 C   0  0  0  0  0  0  0  0  0  0  0  0
   -5.2393   -2.4623    0.0000 C   0  0  0  0  0  0  0  0  0  0  0  0
   -5.6518   -3.1768    0.0000 O   0  0  0  0  0  0  0  0  0  0  0  0
   -5.6518   -1.7478    0.0000 O   0  0  0  0  0  0  0  0  0  0  0  0
  1  2  1  0  0  0  0
  2  3  1  0  0  0  0
  3  4  2  0  0  0  0
  4  5  1  0  0  0  0
  5  6  2  0  0  0  0
  6  7  1  0  0  0  0
  7  8  2  0  0  0  0
  3  8  1  0  0  0  0
  8  9  1  0  0  0  0
  9 10  1  0  0  0  0
 11 10  1  6  0  0  0
 11 12  1  0  0  0  0
 12 13  1  0  0  0  0
 13 14  1  0  0  0  0
 14 15  1  0  0  0  0
 16 15  1  0  0  0  0
 11 16  1  0  0  0  0
 16 17  1  6  0  0  0
  9 17  1  0  0  0  0
  7 18  1  0  0  0  0
  5 19  1  0  0  0  0
 19 20  2  0  0  0  0
 19 21  1  0  0  0  0
 21 22  2  0  0  0  0
 22 23  1  0  0  0  0
  4 23  1  0  0  0  0
 23 24  1  0  0  0  0
 24 25  1  0  0  0  0
 25 26  1  0  0  0  0
 24 26  1  0  0  0  0
 21 27  1  0  0  0  0
 27 28  2  0  0  0  0
 27 29  1  0  0  0  0
M  END
> <Molar mass [g/mol] [MProp:scalar:double]>
401.438

> <Exact mass [Da] [MProp:scalar:double]>
401.175084428

> <Formula>
C21H24FN3O4

> <Composition>
C (62.83%), H (6.03%), F (4.73%), N (10.47%), O (15.94%)

> <Lipinski's rule of five [MProp:scalar:boolean]>
true

> <Atom count [MProp:scalar:integer]>
53

> <Heavy atom count [MProp:scalar:integer]>
29

> <Asymmetric atom count [MProp:scalar:integer]>
2

> <Rotatable bond count [MProp:scalar:integer]>
4

> <Ring count [MProp:scalar:integer]>
5

> <Aromatic ring count [MProp:scalar:integer]>
2

> <Hetero ring count [MProp:scalar:integer]>
3

> <FSP3 [MProp:scalar:double]>
0.52

> <Hydrogen bond donor count [MProp:scalar:integer]>
2

> <Hydrogen bond acceptor count [MProp:scalar:integer]>
7

> <Formal charge [MProp:scalar:integer]>
0

> <Topological polar surface area [A^2] [MProp:scalar:double]>
82.11

> <Polarizability [A^3] [MProp:scalar:double]>
39.59

> <Molar refractivity [cm^3/mol] [MProp:scalar:double]>
106.22

> <Van der Waals volume [A^3] [MProp:scalar:double]>
348.6

> <Minimum projection area [A^2] [MProp:scalar:double]>
54.33

> <Maximum projection area [A^2] [MProp:scalar:double]>
108.91

> <Minimum projection radius [A] [MProp:scalar:double]>
5.15

> <Maximum projection radius [A] [MProp:scalar:double]>
8.28

> <Van der Waals surface area [A^2] [MProp:scalar:double]>
549.14

> <Solvent accessible surface area [A^2] [MProp:scalar:double]>
534.55

> <Strongest acidic pKa [MProp:scalar:double]>
5.89

> <Strongest basic pKa [MProp:scalar:double]>
9.43

> <Isoelectric point [MProp:scalar:double]>
7.81

> <Intrinsic solubility [logS] [MProp:scalar:double]>
-3.1

> <Solubility category>
High

> <logP [MProp:scalar:double]>
-0.49

> <logD_PH0 [MProp:scalar:double]>
-1.29

> <logD_PH1 [MProp:scalar:double]>
-1.28

> <logD_PH2 [MProp:scalar:double]>
-1.28

> <logD_PH3 [MProp:scalar:double]>
-1.27

> <logD_PH4 [MProp:scalar:double]>
-1.25

> <logD_PH5 [MProp:scalar:double]>
-1.07

> <logD_PH6 [MProp:scalar:double]>
-0.67

> <logD_PH7 [MProp:scalar:double]>
-0.5

> <logD_PH8 [MProp:scalar:double]>
-0.49

> <logD_PH9 [MProp:scalar:double]>
-0.59

> <logD_PH10 [MProp:scalar:double]>
-1.03

> <logD_PH11 [MProp:scalar:double]>
-1.45

> <logD_PH12 [MProp:scalar:double]>
-1.55

> <logD_PH13 [MProp:scalar:double]>
-1.56

> <logD_PH14 [MProp:scalar:double]>
-1.56

> <HLB [MProp:scalar:double]>
12.91

> <IUPAC name>
7-[(4aS,7aS)-octahydro-1H-pyrrolo[3,4-b]pyridin-6-yl]-1-cyclopropyl-6-fluoro-8-methoxy-4-oxo-1,4-dihydroquinoline-3-carboxylic acid

> <SMILES>
COC1=C2N(C=C(C(O)=O)C(=O)C2=CC(F)=C1N1C[C@@H]2CCCN[C@@H]2C1)C1CC1

> <InChI>
InChI=1S/C21H24FN3O4/c1-29-20-17-13(19(26)14(21(27)28)9-25(17)12-4-5-12)7-15(22)18(20)24-8-11-3-2-6-23-16(11)10-24/h7,9,11-12,16,23H,2-6,8,10H2,1H3,(H,27,28)/t11-,16-/m0/s1

> <InChIKey>
FABPRXSRWADJSP-MEDUHNTESA-N

> <Traditional name>
moxifloxacin

> <Common names>
avelox; avelox I.V.; moxifloxacin

> <CAS Registry Numbers(R)>
151096-09-2

$$$$
Nadifloxacin
  Mrv2222 01232613222D          

 26 29  0  0  0  0            999 V2000
   -1.4289    0.0000    0.0000 C   0  0  0  0  0  0  0  0  0  0  0  0
   -0.7145   -0.4125    0.0000 C   0  0  0  0  0  0  0  0  0  0  0  0
   -0.7145   -1.2375    0.0000 C   0  0  0  0  0  0  0  0  0  0  0  0
    0.0000   -1.6500    0.0000 C   0  0  0  0  0  0  0  0  0  0  0  0
    0.7145   -1.2375    0.0000 C   0  0  0  0  0  0  0  0  0  0  0  0
    0.7145   -0.4125    0.0000 C   0  0  0  0  0  0  0  0  0  0  0  0
    0.0000    0.0000    0.0000 N   0  0  0  0  0  0  0  0  0  0  0  0
    0.0000    0.8250    0.0000 C   0  0  0  0  0  0  0  0  0  0  0  0
    0.7145    1.2375    0.0000 C   0  0  0  0  0  0  0  0  0  0  0  0
    1.4289    0.8250    0.0000 C   0  0  0  0  0  0  0  0  0  0  0  0
    2.1434    1.2375    0.0000 O   0  0  0  0  0  0  0  0  0  0  0  0
    1.4289    0.0000    0.0000 C   0  0  0  0  0  0  0  0  0  0  0  0
    2.1434   -0.4125    0.0000 C   0  0  0  0  0  0  0  0  0  0  0  0
    2.1434   -1.2375    0.0000 C   0  0  0  0  0  0  0  0  0  0  0  0
    1.4289   -1.6500    0.0000 C   0  0  0  0  0  0  0  0  0  0  0  0
    1.4289   -2.4750    0.0000 N   0  0  0  0  0  0  0  0  0  0  0  0
    2.1434   -2.8875    0.0000 C   0  0  0  0  0  0  0  0  0  0  0  0
    2.1434   -3.7125    0.0000 C   0  0  0  0  0  0  0  0  0  0  0  0
    1.4289   -4.1250    0.0000 C   0  0  0  0  0  0  0  0  0  0  0  0
    0.7145   -3.7125    0.0000 C   0  0  0  0  0  0  0  0  0  0  0  0
    0.7145   -2.8875    0.0000 C   0  0  0  0  0  0  0  0  0  0  0  0
    1.4289   -4.9500    0.0000 O   0  0  0  0  0  0  0  0  0  0  0  0
    2.8579   -1.6500    0.0000 F   0  0  0  0  0  0  0  0  0  0  0  0
    0.7145    2.0625    0.0000 C   0  0  0  0  0  0  0  0  0  0  0  0
    0.0000    2.4750    0.0000 O   0  0  0  0  0  0  0  0  0  0  0  0
    1.4289    2.4750    0.0000 O   0  0  0  0  0  0  0  0  0  0  0  0
  1  2  1  0  0  0  0
  2  3  1  0  0  0  0
  3  4  1  0  0  0  0
  4  5  1  0  0  0  0
  5  6  2  0  0  0  0
  6  7  1  0  0  0  0
  2  7  1  0  0  0  0
  7  8  1  0  0  0  0
  8  9  2  0  0  0  0
  9 10  1  0  0  0  0
 10 11  2  0  0  0  0
 10 12  1  0  0  0  0
  6 12  1  0  0  0  0
 12 13  2  0  0  0  0
 13 14  1  0  0  0  0
 14 15  2  0  0  0  0
  5 15  1  0  0  0  0
 15 16  1  0  0  0  0
 16 17  1  0  0  0  0
 17 18  1  0  0  0  0
 18 19  1  0  0  0  0
 19 20  1  0  0  0  0
 20 21  1  0  0  0  0
 16 21  1  0  0  0  0
 19 22  1  0  0  0  0
 14 23  1  0  0  0  0
  9 24  1  0  0  0  0
 24 25  2  0  0  0  0
 24 26  1  0  0  0  0
M  END
> <Molar mass [g/mol] [MProp:scalar:double]>
360.385

> <Exact mass [Da] [MProp:scalar:double]>
360.148535327

> <Formula>
C19H21FN2O4

> <Composition>
C (63.32%), H (5.87%), F (5.27%), N (7.77%), O (17.76%)

> <Lipinski's rule of five [MProp:scalar:boolean]>
true

> <Atom count [MProp:scalar:integer]>
47

> <Heavy atom count [MProp:scalar:integer]>
26

> <Asymmetric atom count [MProp:scalar:integer]>
1

> <Rotatable bond count [MProp:scalar:integer]>
2

> <Ring count [MProp:scalar:integer]>
4

> <Aromatic ring count [MProp:scalar:integer]>
2

> <Hetero ring count [MProp:scalar:integer]>
3

> <FSP3 [MProp:scalar:double]>
0.47

> <Hydrogen bond donor count [MProp:scalar:integer]>
2

> <Hydrogen bond acceptor count [MProp:scalar:integer]>
6

> <Formal charge [MProp:scalar:integer]>
0

> <Topological polar surface area [A^2] [MProp:scalar:double]>
81.08

> <Polarizability [A^3] [MProp:scalar:double]>
34.99

> <Molar refractivity [cm^3/mol] [MProp:scalar:double]>
96.03

> <Van der Waals volume [A^3] [MProp:scalar:double]>
313.05

> <Minimum projection area [A^2] [MProp:scalar:double]>
47.55

> <Maximum projection area [A^2] [MProp:scalar:double]>
98.84

> <Minimum projection radius [A] [MProp:scalar:double]>
5.31

> <Maximum projection radius [A] [MProp:scalar:double]>
7.92

> <Van der Waals surface area [A^2] [MProp:scalar:double]>
484.61

> <Solvent accessible surface area [A^2] [MProp:scalar:double]>
476.46

> <Strongest acidic pKa [MProp:scalar:double]>
6.33

> <Strongest basic pKa [MProp:scalar:double]>
1.04

> <Isoelectric point [MProp:scalar:double]>
3.69

> <Intrinsic solubility [logS] [MProp:scalar:double]>
-3.01

> <Solubility category>
High

> <logP [MProp:scalar:double]>
1.84

> <logD_PH0 [MProp:scalar:double]>
0.76

> <logD_PH1 [MProp:scalar:double]>
1.52

> <logD_PH2 [MProp:scalar:double]>
1.8

> <logD_PH3 [MProp:scalar:double]>
1.84

> <logD_PH4 [MProp:scalar:double]>
1.84

> <logD_PH5 [MProp:scalar:double]>
1.82

> <logD_PH6 [MProp:scalar:double]>
1.68

> <logD_PH7 [MProp:scalar:double]>
1.09

> <logD_PH8 [MProp:scalar:double]>
0.17

> <logD_PH9 [MProp:scalar:double]>
-0.77

> <logD_PH10 [MProp:scalar:double]>
-1.45

> <logD_PH11 [MProp:scalar:double]>
-1.66

> <logD_PH12 [MProp:scalar:double]>
-1.68

> <logD_PH13 [MProp:scalar:double]>
-1.69

> <logD_PH14 [MProp:scalar:double]>
-1.71

> <HLB [MProp:scalar:double]>
7.6

> <IUPAC name>
7-fluoro-8-(4-hydroxypiperidin-1-yl)-12-methyl-4-oxo-1-azatricyclo[7.3.1.0⁵,¹³]trideca-2,5,7,9(13)-tetraene-3-carboxylic acid

> <SMILES>
CC1CCC2=C3N1C=C(C(O)=O)C(=O)C3=CC(F)=C2N1CCC(O)CC1

> <InChI>
InChI=1/C19H21FN2O4/c1-10-2-3-12-16-13(18(24)14(19(25)26)9-22(10)16)8-15(20)17(12)21-6-4-11(23)5-7-21/h8-11,23H,2-7H2,1H3,(H,25,26)

> <InChIKey>
JYJTVFIEFKZWCJ-UHFFFAOYNA-N

> <Traditional name>
nadifloxacin

> <Common names>
NDFX; R-ndfx; S-nadifloxacin; S-ndfx; acuatim; nadifloxacin; nadifloxacine; nadifloxacino; nadifloxacinum

> <CAS Registry Numbers(R)>
124858-35-1

$$$$
Norfloxacin
  Mrv2222 01232613222D          

 23 25  0  0  0  0            999 V2000
    2.1434   -2.8875    0.0000 C   0  0  0  0  0  0  0  0  0  0  0  0
    1.4289   -2.4750    0.0000 C   0  0  0  0  0  0  0  0  0  0  0  0
    1.4289   -1.6500    0.0000 N   0  0  0  0  0  0  0  0  0  0  0  0
    0.7145   -1.2375    0.0000 C   0  0  0  0  0  0  0  0  0  0  0  0
    0.7145   -0.4125    0.0000 C   0  0  0  0  0  0  0  0  0  0  0  0
    1.4289    0.0000    0.0000 C   0  0  0  0  0  0  0  0  0  0  0  0
    1.4289    0.8250    0.0000 O   0  0  0  0  0  0  0  0  0  0  0  0
    2.1434   -0.4125    0.0000 C   0  0  0  0  0  0  0  0  0  0  0  0
    2.8579    0.0000    0.0000 C   0  0  0  0  0  0  0  0  0  0  0  0
    3.5724   -0.4125    0.0000 C   0  0  0  0  0  0  0  0  0  0  0  0
    3.5724   -1.2375    0.0000 C   0  0  0  0  0  0  0  0  0  0  0  0
    2.8579   -1.6500    0.0000 C   0  0  0  0  0  0  0  0  0  0  0  0
    2.1434   -1.2375    0.0000 C   0  0  0  0  0  0  0  0  0  0  0  0
    4.2868   -1.6500    0.0000 N   0  0  0  0  0  0  0  0  0  0  0  0
    5.0013   -1.2375    0.0000 C   0  0  0  0  0  0  0  0  0  0  0  0
    5.7158   -1.6500    0.0000 C   0  0  0  0  0  0  0  0  0  0  0  0
    5.7158   -2.4750    0.0000 N   0  0  0  0  0  0  0  0  0  0  0  0
    5.0013   -2.8875    0.0000 C   0  0  0  0  0  0  0  0  0  0  0  0
    4.2868   -2.4750    0.0000 C   0  0  0  0  0  0  0  0  0  0  0  0
    4.2868    0.0000    0.0000 F   0  0  0  0  0  0  0  0  0  0  0  0
    0.0000    0.0000    0.0000 C   0  0  0  0  0  0  0  0  0  0  0  0
   -0.7145   -0.4125    0.0000 O   0  0  0  0  0  0  0  0  0  0  0  0
    0.0000    0.8250    0.0000 O   0  0  0  0  0  0  0  0  0  0  0  0
  1  2  1  0  0  0  0
  2  3  1  0  0  0  0
  3  4  1  0  0  0  0
  4  5  2  0  0  0  0
  5  6  1  0  0  0  0
  6  7  2  0  0  0  0
  6  8  1  0  0  0  0
  8  9  2  0  0  0  0
  9 10  1  0  0  0  0
 10 11  2  0  0  0  0
 11 12  1  0  0  0  0
 12 13  2  0  0  0  0
  8 13  1  0  0  0  0
  3 13  1  0  0  0  0
 11 14  1  0  0  0  0
 14 15  1  0  0  0  0
 15 16  1  0  0  0  0
 16 17  1  0  0  0  0
 17 18  1  0  0  0  0
 18 19  1  0  0  0  0
 14 19  1  0  0  0  0
 10 20  1  0  0  0  0
  5 21  1  0  0  0  0
 21 22  2  0  0  0  0
 21 23  1  0  0  0  0
M  END
> <Molar mass [g/mol] [MProp:scalar:double]>
319.336

> <Exact mass [Da] [MProp:scalar:double]>
319.133219615

> <Formula>
C16H18FN3O3

> <Composition>
C (60.18%), H (5.68%), F (5.95%), N (13.16%), O (15.03%)

> <Lipinski's rule of five [MProp:scalar:boolean]>
true

> <Atom count [MProp:scalar:integer]>
41

> <Heavy atom count [MProp:scalar:integer]>
23

> <Asymmetric atom count [MProp:scalar:integer]>
0

> <Rotatable bond count [MProp:scalar:integer]>
3

> <Ring count [MProp:scalar:integer]>
3

> <Aromatic ring count [MProp:scalar:integer]>
2

> <Hetero ring count [MProp:scalar:integer]>
2

> <FSP3 [MProp:scalar:double]>
0.37

> <Hydrogen bond donor count [MProp:scalar:integer]>
2

> <Hydrogen bond acceptor count [MProp:scalar:integer]>
6

> <Formal charge [MProp:scalar:integer]>
0

> <Topological polar surface area [A^2] [MProp:scalar:double]>
72.88

> <Polarizability [A^3] [MProp:scalar:double]>
31.15

> <Molar refractivity [cm^3/mol] [MProp:scalar:double]>
85.48

> <Van der Waals volume [A^3] [MProp:scalar:double]>
277.46

> <Minimum projection area [A^2] [MProp:scalar:double]>
42.52

> <Maximum projection area [A^2] [MProp:scalar:double]>
94.71

> <Minimum projection radius [A] [MProp:scalar:double]>
5.16

> <Maximum projection radius [A] [MProp:scalar:double]>
7.44

> <Van der Waals surface area [A^2] [MProp:scalar:double]>
435.22

> <Solvent accessible surface area [A^2] [MProp:scalar:double]>
483.0

> <Strongest acidic pKa [MProp:scalar:double]>
5.97

> <Strongest basic pKa [MProp:scalar:double]>
8.69

> <Isoelectric point [MProp:scalar:double]>
7.48

> <Intrinsic solubility [logS] [MProp:scalar:double]>
-2.09

> <Solubility category>
High

> <logP [MProp:scalar:double]>
-0.87

> <logD_PH0 [MProp:scalar:double]>
-2.07

> <logD_PH1 [MProp:scalar:double]>
-1.83

> <logD_PH2 [MProp:scalar:double]>
-1.8

> <logD_PH3 [MProp:scalar:double]>
-1.79

> <logD_PH4 [MProp:scalar:double]>
-1.76

> <logD_PH5 [MProp:scalar:double]>
-1.54

> <logD_PH6 [MProp:scalar:double]>
-1.08

> <logD_PH7 [MProp:scalar:double]>
-0.87

> <logD_PH8 [MProp:scalar:double]>
-0.91

> <logD_PH9 [MProp:scalar:double]>
-1.27

> <logD_PH10 [MProp:scalar:double]>
-1.83

> <logD_PH11 [MProp:scalar:double]>
-2.05

> <logD_PH12 [MProp:scalar:double]>
-2.08

> <logD_PH13 [MProp:scalar:double]>
-2.08

> <logD_PH14 [MProp:scalar:double]>
-2.08

> <HLB [MProp:scalar:double]>
13.94

> <IUPAC name>
1-ethyl-6-fluoro-4-oxo-7-(piperazin-1-yl)-1,4-dihydroquinoline-3-carboxylic acid

> <SMILES>
CCN1C=C(C(O)=O)C(=O)C2=CC(F)=C(C=C12)N1CCNCC1

> <InChI>
InChI=1S/C16H18FN3O3/c1-2-19-9-11(16(22)23)15(21)10-7-12(17)14(8-13(10)19)20-5-3-18-4-6-20/h7-9,18H,2-6H2,1H3,(H,22,23)

> <InChIKey>
OGJPXUAPXNRGGI-UHFFFAOYSA-N

> <Traditional name>
norfloxacin

> <Common names>
NFLX; barazan; chibroxin; fulgram; merck brand of norfloxacin; norfloxacin; norfloxacin (product); norfloxacin (substance); norfloxacin merck brand; norfloxacin preparation; norfloxacine; norfloxacino; norfloxacinum; noroxin; sebercim

> <CAS Registry Numbers(R)>
70458-96-7

$$$$
Pefloxacin
  Mrv2222 01232613222D          

 24 26  0  0  0  0            999 V2000
    2.1434   -2.8875    0.0000 C   0  0  0  0  0  0  0  0  0  0  0  0
    1.4289   -2.4750    0.0000 C   0  0  0  0  0  0  0  0  0  0  0  0
    1.4289   -1.6500    0.0000 N   0  0  0  0  0  0  0  0  0  0  0  0
    0.7145   -1.2375    0.0000 C   0  0  0  0  0  0  0  0  0  0  0  0
    0.7145   -0.4125    0.0000 C   0  0  0  0  0  0  0  0  0  0  0  0
    1.4289    0.0000    0.0000 C   0  0  0  0  0  0  0  0  0  0  0  0
    1.4289    0.8250    0.0000 O   0  0  0  0  0  0  0  0  0  0  0  0
    2.1434   -0.4125    0.0000 C   0  0  0  0  0  0  0  0  0  0  0  0
    2.8579    0.0000    0.0000 C   0  0  0  0  0  0  0  0  0  0  0  0
    3.5724   -0.4125    0.0000 C   0  0  0  0  0  0  0  0  0  0  0  0
    3.5724   -1.2375    0.0000 C   0  0  0  0  0  0  0  0  0  0  0  0
    2.8579   -1.6500    0.0000 C   0  0  0  0  0  0  0  0  0  0  0  0
    2.1434   -1.2375    0.0000 C   0  0  0  0  0  0  0  0  0  0  0  0
    4.2868   -1.6500    0.0000 N   0  0  0  0  0  0  0  0  0  0  0  0
    5.0013   -1.2375    0.0000 C   0  0  0  0  0  0  0  0  0  0  0  0
    5.7158   -1.6500    0.0000 C   0  0  0  0  0  0  0  0  0  0  0  0
    5.7158   -2.4750    0.0000 N   0  0  0  0  0  0  0  0  0  0  0  0
    5.0013   -2.8875    0.0000 C   0  0  0  0  0  0  0  0  0  0  0  0
    4.2868   -2.4750    0.0000 C   0  0  0  0  0  0  0  0  0  0  0  0
    6.4302   -2.8875    0.0000 C   0  0  0  0  0  0  0  0  0  0  0  0
    4.2868    0.0000    0.0000 F   0  0  0  0  0  0  0  0  0  0  0  0
    0.0000    0.0000    0.0000 C   0  0  0  0  0  0  0  0  0  0  0  0
   -0.7145   -0.4125    0.0000 O   0  0  0  0  0  0  0  0  0  0  0  0
    0.0000    0.8250    0.0000 O   0  0  0  0  0  0  0  0  0  0  0  0
  1  2  1  0  0  0  0
  2  3  1  0  0  0  0
  3  4  1  0  0  0  0
  4  5  2  0  0  0  0
  5  6  1  0  0  0  0
  6  7  2  0  0  0  0
  6  8  1  0  0  0  0
  8  9  2  0  0  0  0
  9 10  1  0  0  0  0
 10 11  2  0  0  0  0
 11 12  1  0  0  0  0
 12 13  2  0  0  0  0
  8 13  1  0  0  0  0
  3 13  1  0  0  0  0
 11 14  1  0  0  0  0
 14 15  1  0  0  0  0
 15 16  1  0  0  0  0
 16 17  1  0  0  0  0
 17 18  1  0  0  0  0
 18 19  1  0  0  0  0
 14 19  1  0  0  0  0
 17 20  1  0  0  0  0
 10 21  1  0  0  0  0
  5 22  1  0  0  0  0
 22 23  2  0  0  0  0
 22 24  1  0  0  0  0
M  END
> <Molar mass [g/mol] [MProp:scalar:double]>
333.363

> <Exact mass [Da] [MProp:scalar:double]>
333.148869679

> <Formula>
C17H20FN3O3

> <Composition>
C (61.25%), H (6.05%), F (5.70%), N (12.61%), O (14.40%)

> <Lipinski's rule of five [MProp:scalar:boolean]>
true

> <Atom count [MProp:scalar:integer]>
44

> <Heavy atom count [MProp:scalar:integer]>
24

> <Asymmetric atom count [MProp:scalar:integer]>
0

> <Rotatable bond count [MProp:scalar:integer]>
3

> <Ring count [MProp:scalar:integer]>
3

> <Aromatic ring count [MProp:scalar:integer]>
2

> <Hetero ring count [MProp:scalar:integer]>
2

> <FSP3 [MProp:scalar:double]>
0.41

> <Hydrogen bond donor count [MProp:scalar:integer]>
1

> <Hydrogen bond acceptor count [MProp:scalar:integer]>
6

> <Formal charge [MProp:scalar:integer]>
0

> <Topological polar surface area [A^2] [MProp:scalar:double]>
64.09

> <Polarizability [A^3] [MProp:scalar:double]>
32.98

> <Molar refractivity [cm^3/mol] [MProp:scalar:double]>
90.77

> <Van der Waals volume [A^3] [MProp:scalar:double]>
295.31

> <Minimum projection area [A^2] [MProp:scalar:double]>
44.71

> <Maximum projection area [A^2] [MProp:scalar:double]>
99.92

> <Minimum projection radius [A] [MProp:scalar:double]>
5.08

> <Maximum projection radius [A] [MProp:scalar:double]>
8.13

> <Van der Waals surface area [A^2] [MProp:scalar:double]>
469.6

> <Solvent accessible surface area [A^2] [MProp:scalar:double]>
523.49

> <Strongest acidic pKa [MProp:scalar:double]>
5.97

> <Strongest basic pKa [MProp:scalar:double]>
8.37

> <Isoelectric point [MProp:scalar:double]>
7.32

> <Intrinsic solubility [logS] [MProp:scalar:double]>
-1.88

> <Solubility category>
High

> <logP [MProp:scalar:double]>
-0.46

> <logD_PH0 [MProp:scalar:double]>
-1.94

> <logD_PH1 [MProp:scalar:double]>
-1.71

> <logD_PH2 [MProp:scalar:double]>
-1.68

> <logD_PH3 [MProp:scalar:double]>
-1.67

> <logD_PH4 [MProp:scalar:double]>
-1.6

> <logD_PH5 [MProp:scalar:double]>
-1.24

> <logD_PH6 [MProp:scalar:double]>
-0.67

> <logD_PH7 [MProp:scalar:double]>
-0.46

> <logD_PH8 [MProp:scalar:double]>
-0.55

> <logD_PH9 [MProp:scalar:double]>
-1.04

> <logD_PH10 [MProp:scalar:double]>
-1.55

> <logD_PH11 [MProp:scalar:double]>
-1.68

> <logD_PH12 [MProp:scalar:double]>
-1.7

> <logD_PH13 [MProp:scalar:double]>
-1.7

> <logD_PH14 [MProp:scalar:double]>
-1.7

> <HLB [MProp:scalar:double]>
13.74

> <IUPAC name>
1-ethyl-6-fluoro-7-(4-methylpiperazin-1-yl)-4-oxo-1,4-dihydroquinoline-3-carboxylic acid

> <SMILES>
CCN1C=C(C(O)=O)C(=O)C2=CC(F)=C(C=C12)N1CCN(C)CC1

> <InChI>
InChI=1S/C17H20FN3O3/c1-3-20-10-12(17(23)24)16(22)11-8-13(18)15(9-14(11)20)21-6-4-19(2)5-7-21/h8-10H,3-7H2,1-2H3,(H,23,24)

> <InChIKey>
FHFYDNQZQSQIAI-UHFFFAOYSA-N

> <Traditional name>
pefloxacin

> <Common names>
PFLX; abactal; labocton; mesylate, pefloxacin; peflacine; pefloxacin; pefloxacin (substance); pefloxacin [inn-french]; pefloxacin, silver; pefloxacine; pefloxacino; pefloxacino [inn-spanish]; pefloxacinum; silver pefloxacin

> <CAS Registry Numbers(R)>
70458-92-3

$$$$
Rufloxacin
  Mrv2222 01232613222D          

 25 28  0  0  0  0            999 V2000
   -3.5724    1.2375    0.0000 C   0  0  0  0  0  0  0  0  0  0  0  0
   -2.8579    0.8250    0.0000 N   0  0  0  0  0  0  0  0  0  0  0  0
   -2.1434    1.2375    0.0000 C   0  0  0  0  0  0  0  0  0  0  0  0
   -1.4289    0.8250    0.0000 C   0  0  0  0  0  0  0  0  0  0  0  0
   -1.4289    0.0000    0.0000 N   0  0  0  0  0  0  0  0  0  0  0  0
   -2.1434   -0.4125    0.0000 C   0  0  0  0  0  0  0  0  0  0  0  0
   -2.8579    0.0000    0.0000 C   0  0  0  0  0  0  0  0  0  0  0  0
   -0.7145   -0.4125    0.0000 C   0  0  0  0  0  0  0  0  0  0  0  0
   -0.7145   -1.2375    0.0000 C   0  0  0  0  0  0  0  0  0  0  0  0
    0.0000   -1.6500    0.0000 C   0  0  0  0  0  0  0  0  0  0  0  0
    0.7145   -1.2375    0.0000 C   0  0  0  0  0  0  0  0  0  0  0  0
    0.7145   -0.4125    0.0000 C   0  0  0  0  0  0  0  0  0  0  0  0
    0.0000    0.0000    0.0000 C   0  0  0  0  0  0  0  0  0  0  0  0
    0.0000    0.8250    0.0000 S   0  0  0  0  0  0  0  0  0  0  0  0
    0.7145    1.2375    0.0000 C   0  0  0  0  0  0  0  0  0  0  0  0
    1.4289    0.8250    0.0000 C   0  0  0  0  0  0  0  0  0  0  0  0
    1.4289    0.0000    0.0000 N   0  0  0  0  0  0  0  0  0  0  0  0
    2.1434   -0.4125    0.0000 C   0  0  0  0  0  0  0  0  0  0  0  0
    2.1434   -1.2375    0.0000 C   0  0  0  0  0  0  0  0  0  0  0  0
    1.4289   -1.6500    0.0000 C   0  0  0  0  0  0  0  0  0  0  0  0
    1.4289   -2.4750    0.0000 O   0  0  0  0  0  0  0  0  0  0  0  0
    2.8579   -1.6500    0.0000 C   0  0  0  0  0  0  0  0  0  0  0  0
    3.5724   -1.2375    0.0000 O   0  0  0  0  0  0  0  0  0  0  0  0
    2.8579   -2.4750    0.0000 O   0  0  0  0  0  0  0  0  0  0  0  0
   -1.4289   -1.6500    0.0000 F   0  0  0  0  0  0  0  0  0  0  0  0
  1  2  1  0  0  0  0
  2  3  1  0  0  0  0
  3  4  1  0  0  0  0
  4  5  1  0  0  0  0
  5  6  1  0  0  0  0
  6  7  1  0  0  0  0
  2  7  1  0  0  0  0
  5  8  1  0  0  0  0
  8  9  2  0  0  0  0
  9 10  1  0  0  0  0
 10 11  2  0  0  0  0
 11 12  1  0  0  0  0
 12 13  2  0  0  0  0
  8 13  1  0  0  0  0
 13 14  1  0  0  0  0
 14 15  1  0  0  0  0
 15 16  1  0  0  0  0
 16 17  1  0  0  0  0
 12 17  1  0  0  0  0
 17 18  1  0  0  0  0
 18 19  2  0  0  0  0
 19 20  1  0  0  0  0
 11 20  1  0  0  0  0
 20 21  2  0  0  0  0
 19 22  1  0  0  0  0
 22 23  2  0  0  0  0
 22 24  1  0  0  0  0
  9 25  1  0  0  0  0
M  END
> <Molar mass [g/mol] [MProp:scalar:double]>
363.41

> <Exact mass [Da] [MProp:scalar:double]>
363.105290789

> <Formula>
C17H18FN3O3S

> <Composition>
C (56.19%), H (4.99%), F (5.23%), N (11.56%), O (13.21%), S (8.82%)

> <Lipinski's rule of five [MProp:scalar:boolean]>
true

> <Atom count [MProp:scalar:integer]>
43

> <Heavy atom count [MProp:scalar:integer]>
25

> <Asymmetric atom count [MProp:scalar:integer]>
0

> <Rotatable bond count [MProp:scalar:integer]>
2

> <Ring count [MProp:scalar:integer]>
4

> <Aromatic ring count [MProp:scalar:integer]>
2

> <Hetero ring count [MProp:scalar:integer]>
3

> <FSP3 [MProp:scalar:double]>
0.41

> <Hydrogen bond donor count [MProp:scalar:integer]>
1

> <Hydrogen bond acceptor count [MProp:scalar:integer]>
6

> <Formal charge [MProp:scalar:integer]>
0

> <Topological polar surface area [A^2] [MProp:scalar:double]>
64.09

> <Polarizability [A^3] [MProp:scalar:double]>
35.32

> <Molar refractivity [cm^3/mol] [MProp:scalar:double]>
97.02

> <Van der Waals volume [A^3] [MProp:scalar:double]>
302.41

> <Minimum projection area [A^2] [MProp:scalar:double]>
44.44

> <Maximum projection area [A^2] [MProp:scalar:double]>
98.89

> <Minimum projection radius [A] [MProp:scalar:double]>
5.0

> <Maximum projection radius [A] [MProp:scalar:double]>
8.43

> <Van der Waals surface area [A^2] [MProp:scalar:double]>
464.73

> <Solvent accessible surface area [A^2] [MProp:scalar:double]>
505.81

> <Strongest acidic pKa [MProp:scalar:double]>
5.75

> <Strongest basic pKa [MProp:scalar:double]>
8.33

> <Isoelectric point [MProp:scalar:double]>
7.19

> <Intrinsic solubility [logS] [MProp:scalar:double]>
-2.81

> <Solubility category>
High

> <logP [MProp:scalar:double]>
-0.71

> <logD_PH0 [MProp:scalar:double]>
-1.83

> <logD_PH1 [MProp:scalar:double]>
-1.83

> <logD_PH2 [MProp:scalar:double]>
-1.83

> <logD_PH3 [MProp:scalar:double]>
-1.82

> <logD_PH4 [MProp:scalar:double]>
-1.74

> <logD_PH5 [MProp:scalar:double]>
-1.35

> <logD_PH6 [MProp:scalar:double]>
-0.85

> <logD_PH7 [MProp:scalar:double]>
-0.71

> <logD_PH8 [MProp:scalar:double]>
-0.83

> <logD_PH9 [MProp:scalar:double]>
-1.31

> <logD_PH10 [MProp:scalar:double]>
-1.75

> <logD_PH11 [MProp:scalar:double]>
-1.85

> <logD_PH12 [MProp:scalar:double]>
-1.86

> <logD_PH13 [MProp:scalar:double]>
-1.86

> <logD_PH14 [MProp:scalar:double]>
-1.86

> <HLB [MProp:scalar:double]>
15.31

> <IUPAC name>
7-fluoro-6-(4-methylpiperazin-1-yl)-10-oxo-4-thia-1-azatricyclo[7.3.1.0⁵,¹³]trideca-5(13),6,8,11-tetraene-11-carboxylic acid

> <SMILES>
CN1CCN(CC1)C1=C(F)C=C2C(=O)C(=CN3CCSC1=C23)C(O)=O

> <InChI>
InChI=1S/C17H18FN3O3S/c1-19-2-4-20(5-3-19)14-12(18)8-10-13-16(14)25-7-6-21(13)9-11(15(10)22)17(23)24/h8-9H,2-7H2,1H3,(H,23,24)

> <InChIKey>
NJCJBUHJQLFDSW-UHFFFAOYSA-N

> <Traditional name>
rufloxacin

> <Common names>
rufloxacin; rufloxacin monohydrobromide; rufloxacine; rufloxacino; rufloxacinum; 芦氟沙星

> <CAS Registry Numbers(R)>
101363-10-4

$$$$
Sitafloxacin
  Mrv2222 01232613222D          

 28 32  0  0  1  0            999 V2000
   -2.9896    1.4769    0.0000 C    0  0  0  0  0  0  0  0  0  0  0  0
   -2.2359    1.8125    0.0000 C    0  0  0  0  0  0  0  0  0  0  0  0
   -2.3221    0.9920    0.0000 C    0  0  0  0  0  0  0  0  0  0  0  0
   -1.5152    0.8205    0.0000 C    0  0  0  0  0  0  0  0  0  0  0  0
   -1.4289    0.0000    0.0000 N    0  0  0  0  0  0  0  0  0  0  0  0
   -2.1826   -0.3356    0.0000 C    0  0  0  0  0  0  0  0  0  0  0  0
   -2.7346    0.2775    0.0000 C    0  0  1  0  0  0  0  0  0  0  0  0
   -3.5551    0.1913    0.0000 N    0  0  0  0  0  0  0  0  0  0  0  0
   -0.7145   -0.4125    0.0000 C    0  0  0  0  0  0  0  0  0  0  0  0
   -0.7145   -1.2375    0.0000 C    0  0  0  0  0  0  0  0  0  0  0  0
    0.0000   -1.6500    0.0000 C    0  0  0  0  0  0  0  0  0  0  0  0
    0.7145   -1.2375    0.0000 C    0  0  0  0  0  0  0  0  0  0  0  0
    0.7145   -0.4125    0.0000 C    0  0  0  0  0  0  0  0  0  0  0  0
    0.0000    0.0000    0.0000 C    0  0  0  0  0  0  0  0  0  0  0  0
    0.0000    0.8250    0.0000 Cl   0  0  0  0  0  0  0  0  0  0  0  0
    1.4289    0.0000    0.0000 N    0  0  0  0  0  0  0  0  0  0  0  0
    2.1434   -0.4125    0.0000 C    0  0  0  0  0  0  0  0  0  0  0  0
    2.1434   -1.2375    0.0000 C    0  0  0  0  0  0  0  0  0  0  0  0
    1.4289   -1.6500    0.0000 C    0  0  0  0  0  0  0  0  0  0  0  0
    1.4289   -2.4750    0.0000 O    0  0  0  0  0  0  0  0  0  0  0  0
    2.8579   -1.6500    0.0000 C    0  0  0  0  0  0  0  0  0  0  0  0
    3.5724   -1.2375    0.0000 O    0  0  0  0  0  0  0  0  0  0  0  0
    2.8579   -2.4750    0.0000 O    0  0  0  0  0  0  0  0  0  0  0  0
    1.4289    0.8250    0.0000 C    0  0  2  0  0  0  0  0  0  0  0  0
    1.0164    1.5395    0.0000 C    0  0  0  0  0  0  0  0  0  0  0  0
    1.8414    1.5395    0.0000 C    0  0  2  0  0  0  0  0  0  0  0  0
    2.5559    1.9520    0.0000 F    0  0  0  0  0  0  0  0  0  0  0  0
   -1.4289   -1.6500    0.0000 F    0  0  0  0  0  0  0  0  0  0  0  0
  1  2  1  0  0  0  0
  2  3  1  0  0  0  0
  1  3  1  0  0  0  0
  3  4  1  0  0  0  0
  4  5  1  0  0  0  0
  5  6  1  0  0  0  0
  7  6  1  0  0  0  0
  7  3  1  0  0  0  0
  7  8  1  1  0  0  0
  5  9  1  0  0  0  0
  9 10  2  0  0  0  0
 10 11  1  0  0  0  0
 11 12  2  0  0  0  0
 12 13  1  0  0  0  0
 13 14  2  0  0  0  0
  9 14  1  0  0  0  0
 14 15  1  0  0  0  0
 13 16  1  0  0  0  0
 16 17  1  0  0  0  0
 17 18  2  0  0  0  0
 18 19  1  0  0  0  0
 12 19  1  0  0  0  0
 19 20  2  0  0  0  0
 18 21  1  0  0  0  0
 21 22  2  0  0  0  0
 21 23  1  0  0  0  0
 24 16  1  6  0  0  0
 24 25  1  0  0  0  0
 26 25  1  0  0  0  0
 24 26  1  0  0  0  0
 26 27  1  6  0  0  0
 10 28  1  0  0  0  0
M  END
> <Molar mass [g/mol] [MProp:scalar:double]>
409.82

> <Exact mass [Da] [MProp:scalar:double]>
409.1004755

> <Formula>
C19H18ClF2N3O3

> <Composition>
C (55.69%), H (4.43%), Cl (8.65%), F (9.27%), N (10.25%), O (11.71%)

> <Lipinski's rule of five [MProp:scalar:boolean]>
true

> <Atom count [MProp:scalar:integer]>
46

> <Heavy atom count [MProp:scalar:integer]>
28

> <Asymmetric atom count [MProp:scalar:integer]>
3

> <Rotatable bond count [MProp:scalar:integer]>
3

> <Ring count [MProp:scalar:integer]>
5

> <Aromatic ring count [MProp:scalar:integer]>
2

> <Hetero ring count [MProp:scalar:integer]>
2

> <FSP3 [MProp:scalar:double]>
0.47

> <Hydrogen bond donor count [MProp:scalar:integer]>
2

> <Hydrogen bond acceptor count [MProp:scalar:integer]>
6

> <Formal charge [MProp:scalar:integer]>
0

> <Topological polar surface area [A^2] [MProp:scalar:double]>
86.87

> <Polarizability [A^3] [MProp:scalar:double]>
36.97

> <Molar refractivity [cm^3/mol] [MProp:scalar:double]>
99.09

> <Van der Waals volume [A^3] [MProp:scalar:double]>
323.62

> <Minimum projection area [A^2] [MProp:scalar:double]>
47.64

> <Maximum projection area [A^2] [MProp:scalar:double]>
105.97

> <Minimum projection radius [A] [MProp:scalar:double]>
5.09

> <Maximum projection radius [A] [MProp:scalar:double]>
8.13

> <Van der Waals surface area [A^2] [MProp:scalar:double]>
494.18

> <Solvent accessible surface area [A^2] [MProp:scalar:double]>
509.62

> <Strongest acidic pKa [MProp:scalar:double]>
6.3

> <Strongest basic pKa [MProp:scalar:double]>
9.55

> <Isoelectric point [MProp:scalar:double]>
8.07

> <Intrinsic solubility [logS] [MProp:scalar:double]>
-4.04

> <Solubility category>
Moderate

> <logP [MProp:scalar:double]>
-0.14

> <logD_PH0 [MProp:scalar:double]>
-0.94

> <logD_PH1 [MProp:scalar:double]>
-0.94

> <logD_PH2 [MProp:scalar:double]>
-0.94

> <logD_PH3 [MProp:scalar:double]>
-0.94

> <logD_PH4 [MProp:scalar:double]>
-0.93

> <logD_PH5 [MProp:scalar:double]>
-0.84

> <logD_PH6 [MProp:scalar:double]>
-0.48

> <logD_PH7 [MProp:scalar:double]>
-0.19

> <logD_PH8 [MProp:scalar:double]>
-0.14

> <logD_PH9 [MProp:scalar:double]>
-0.23

> <logD_PH10 [MProp:scalar:double]>
-0.65

> <logD_PH11 [MProp:scalar:double]>
-1.21

> <logD_PH12 [MProp:scalar:double]>
-1.4

> <logD_PH13 [MProp:scalar:double]>
-1.43

> <logD_PH14 [MProp:scalar:double]>
-1.43

> <HLB [MProp:scalar:double]>
11.98

> <IUPAC name>
7-[(7S)-7-amino-5-azaspiro[2.4]heptan-5-yl]-8-chloro-6-fluoro-1-[(1R,2S)-2-fluorocyclopropyl]-4-oxo-1,4-dihydroquinoline-3-carboxylic acid

> <SMILES>
N[C@@H]1CN(CC11CC1)C1=C(F)C=C2C(=O)C(=CN([C@@H]3C[C@@H]3F)C2=C1Cl)C(O)=O

> <InChI>
InChI=1S/C19H18ClF2N3O3/c20-14-15-8(17(26)9(18(27)28)5-25(15)12-4-10(12)21)3-11(22)16(14)24-6-13(23)19(7-24)1-2-19/h3,5,10,12-13H,1-2,4,6-7,23H2,(H,27,28)/t10-,12-,13+/m1/s1

> <InChIKey>
PNUZDKCDAWUEGK-CYZMBNFOSA-N

> <Traditional name>
sitafloxacin

> <Common names>
sitafloxacin

> <CAS Registry Numbers(R)>
127254-12-0, 163253-35-8, 273401-03-9, 155421-11-7, 163157-04-8, 167355-47-7

$$$$
Sparfloxacin
  Mrv2222 01232613222D          

 28 31  0  0  1  0            999 V2000
   -2.1434    2.0625    0.0000 C   0  0  0  0  0  0  0  0  0  0  0  0
   -2.1434    1.2375    0.0000 C   0  0  2  0  0  0  0  0  0  0  0  0
   -1.4289    0.8250    0.0000 C   0  0  0  0  0  0  0  0  0  0  0  0
   -1.4289    0.0000    0.0000 N   0  0  0  0  0  0  0  0  0  0  0  0
   -2.1434   -0.4125    0.0000 C   0  0  0  0  0  0  0  0  0  0  0  0
   -2.8579    0.0000    0.0000 C   0  0  1  0  0  0  0  0  0  0  0  0
   -2.8579    0.8250    0.0000 N   0  0  0  0  0  0  0  0  0  0  0  0
   -3.5724   -0.4125    0.0000 C   0  0  0  0  0  0  0  0  0  0  0  0
   -0.7145   -0.4125    0.0000 C   0  0  0  0  0  0  0  0  0  0  0  0
   -0.7145   -1.2375    0.0000 C   0  0  0  0  0  0  0  0  0  0  0  0
    0.0000   -1.6500    0.0000 C   0  0  0  0  0  0  0  0  0  0  0  0
    0.7145   -1.2375    0.0000 C   0  0  0  0  0  0  0  0  0  0  0  0
    0.7145   -0.4125    0.0000 C   0  0  0  0  0  0  0  0  0  0  0  0
    0.0000    0.0000    0.0000 C   0  0  0  0  0  0  0  0  0  0  0  0
    0.0000    0.8250    0.0000 F   0  0  0  0  0  0  0  0  0  0  0  0
    1.4289    0.0000    0.0000 N   0  0  0  0  0  0  0  0  0  0  0  0
    2.1434   -0.4125    0.0000 C   0  0  0  0  0  0  0  0  0  0  0  0
    2.1434   -1.2375    0.0000 C   0  0  0  0  0  0  0  0  0  0  0  0
    1.4289   -1.6500    0.0000 C   0  0  0  0  0  0  0  0  0  0  0  0
    1.4289   -2.4750    0.0000 O   0  0  0  0  0  0  0  0  0  0  0  0
    2.8579   -1.6500    0.0000 C   0  0  0  0  0  0  0  0  0  0  0  0
    3.5724   -1.2375    0.0000 O   0  0  0  0  0  0  0  0  0  0  0  0
    2.8579   -2.4750    0.0000 O   0  0  0  0  0  0  0  0  0  0  0  0
    1.4289    0.8250    0.0000 C   0  0  0  0  0  0  0  0  0  0  0  0
    1.0164    1.5395    0.0000 C   0  0  0  0  0  0  0  0  0  0  0  0
    1.8414    1.5395    0.0000 C   0  0  0  0  0  0  0  0  0  0  0  0
    0.0000   -2.4750    0.0000 N   0  0  0  0  0  0  0  0  0  0  0  0
   -1.4289   -1.6500    0.0000 F   0  0  0  0  0  0  0  0  0  0  0  0
  2  1  1  6  0  0  0
  2  3  1  0  0  0  0
  3  4  1  0  0  0  0
  4  5  1  0  0  0  0
  6  5  1  0  0  0  0
  6  7  1  0  0  0  0
  2  7  1  0  0  0  0
  6  8  1  6  0  0  0
  4  9  1  0  0  0  0
  9 10  2  0  0  0  0
 10 11  1  0  0  0  0
 11 12  2  0  0  0  0
 12 13  1  0  0  0  0
 13 14  2  0  0  0  0
  9 14  1  0  0  0  0
 14 15  1  0  0  0  0
 13 16  1  0  0  0  0
 16 17  1  0  0  0  0
 17 18  2  0  0  0  0
 18 19  1  0  0  0  0
 12 19  1  0  0  0  0
 19 20  2  0  0  0  0
 18 21  1  0  0  0  0
 21 22  2  0  0  0  0
 21 23  1  0  0  0  0
 16 24  1  0  0  0  0
 24 25  1  0  0  0  0
 25 26  1  0  0  0  0
 24 26  1  0  0  0  0
 11 27  1  0  0  0  0
 10 28  1  0  0  0  0
M  END
> <Molar mass [g/mol] [MProp:scalar:double]>
392.407

> <Exact mass [Da] [MProp:scalar:double]>
392.16599691

> <Formula>
C19H22F2N4O3

> <Composition>
C (58.16%), H (5.65%), F (9.68%), N (14.28%), O (12.23%)

> <Lipinski's rule of five [MProp:scalar:boolean]>
true

> <Atom count [MProp:scalar:integer]>
50

> <Heavy atom count [MProp:scalar:integer]>
28

> <Asymmetric atom count [MProp:scalar:integer]>
2

> <Rotatable bond count [MProp:scalar:integer]>
3

> <Ring count [MProp:scalar:integer]>
4

> <Aromatic ring count [MProp:scalar:integer]>
2

> <Hetero ring count [MProp:scalar:integer]>
2

> <FSP3 [MProp:scalar:double]>
0.47

> <Hydrogen bond donor count [MProp:scalar:integer]>
3

> <Hydrogen bond acceptor count [MProp:scalar:integer]>
7

> <Formal charge [MProp:scalar:integer]>
0

> <Topological polar surface area [A^2] [MProp:scalar:double]>
98.9

> <Polarizability [A^3] [MProp:scalar:double]>
36.85

> <Molar refractivity [cm^3/mol] [MProp:scalar:double]>
101.69

> <Van der Waals volume [A^3] [MProp:scalar:double]>
333.58

> <Minimum projection area [A^2] [MProp:scalar:double]>
48.61

> <Maximum projection area [A^2] [MProp:scalar:double]>
117.52

> <Minimum projection radius [A] [MProp:scalar:double]>
5.73

> <Maximum projection radius [A] [MProp:scalar:double]>
8.38

> <Van der Waals surface area [A^2] [MProp:scalar:double]>
516.03

> <Solvent accessible surface area [A^2] [MProp:scalar:double]>
558.99

> <Strongest acidic pKa [MProp:scalar:double]>
6.35

> <Strongest basic pKa [MProp:scalar:double]>
8.8

> <Isoelectric point [MProp:scalar:double]>
7.73

> <Intrinsic solubility [logS] [MProp:scalar:double]>
-3.01

> <Solubility category>
High

> <logP [MProp:scalar:double]>
0.12

> <logD_PH0 [MProp:scalar:double]>
-2.85

> <logD_PH1 [MProp:scalar:double]>
-2.15

> <logD_PH2 [MProp:scalar:double]>
-1.35

> <logD_PH3 [MProp:scalar:double]>
-0.96

> <logD_PH4 [MProp:scalar:double]>
-0.88

> <logD_PH5 [MProp:scalar:double]>
-0.72

> <logD_PH6 [MProp:scalar:double]>
-0.25

> <logD_PH7 [MProp:scalar:double]>
0.11

> <logD_PH8 [MProp:scalar:double]>
0.12

> <logD_PH9 [MProp:scalar:double]>
-0.19

> <logD_PH10 [MProp:scalar:double]>
-0.81

> <logD_PH11 [MProp:scalar:double]>
-1.12

> <logD_PH12 [MProp:scalar:double]>
-1.17

> <logD_PH13 [MProp:scalar:double]>
-1.18

> <logD_PH14 [MProp:scalar:double]>
-1.18

> <HLB [MProp:scalar:double]>
12.74

> <IUPAC name>
5-amino-1-cyclopropyl-7-[(3R,5S)-3,5-dimethylpiperazin-1-yl]-6,8-difluoro-4-oxo-1,4-dihydroquinoline-3-carboxylic acid

> <SMILES>
C[C@H]1CN(C[C@@H](C)N1)C1=C(F)C(N)=C2C(=O)C(=CN(C3CC3)C2=C1F)C(O)=O

> <InChI>
InChI=1S/C19H22F2N4O3/c1-8-5-24(6-9(2)23-8)17-13(20)15(22)12-16(14(17)21)25(10-3-4-10)7-11(18(12)26)19(27)28/h7-10,23H,3-6,22H2,1-2H3,(H,27,28)/t8-,9+

> <InChIKey>
DZZWHBIBMUVIIW-DTORHVGOSA-N

> <Traditional name>
sparfloxacin

> <Common names>
SPFX; esparfloxacino; sparfloxacin; sparfloxacine; sparfloxacinum; zagam

> <CAS Registry Numbers(R)>
110871-86-8

$$$$
Temafloxacin
  Mrv2222 01232613222D          

 30 33  0  0  0  0            999 V2000
   -2.1434    2.0625    0.0000 C   0  0  0  0  0  0  0  0  0  0  0  0
   -2.1434    1.2375    0.0000 C   0  0  0  0  0  0  0  0  0  0  0  0
   -1.4289    0.8250    0.0000 C   0  0  0  0  0  0  0  0  0  0  0  0
   -1.4289    0.0000    0.0000 N   0  0  0  0  0  0  0  0  0  0  0  0
   -2.1434   -0.4125    0.0000 C   0  0  0  0  0  0  0  0  0  0  0  0
   -2.8579    0.0000    0.0000 C   0  0  0  0  0  0  0  0  0  0  0  0
   -2.8579    0.8250    0.0000 N   0  0  0  0  0  0  0  0  0  0  0  0
   -0.7145   -0.4125    0.0000 C   0  0  0  0  0  0  0  0  0  0  0  0
   -0.7145   -1.2375    0.0000 C   0  0  0  0  0  0  0  0  0  0  0  0
    0.0000   -1.6500    0.0000 C   0  0  0  0  0  0  0  0  0  0  0  0
    0.7145   -1.2375    0.0000 C   0  0  0  0  0  0  0  0  0  0  0  0
    0.7145   -0.4125    0.0000 C   0  0  0  0  0  0  0  0  0  0  0  0
    0.0000    0.0000    0.0000 C   0  0  0  0  0  0  0  0  0  0  0  0
    1.4289    0.0000    0.0000 N   0  0  0  0  0  0  0  0  0  0  0  0
    2.1434   -0.4125    0.0000 C   0  0  0  0  0  0  0  0  0  0  0  0
    2.1434   -1.2375    0.0000 C   0  0  0  0  0  0  0  0  0  0  0  0
    1.4289   -1.6500    0.0000 C   0  0  0  0  0  0  0  0  0  0  0  0
    1.4289   -2.4750    0.0000 O   0  0  0  0  0  0  0  0  0  0  0  0
    2.8579   -1.6500    0.0000 C   0  0  0  0  0  0  0  0  0  0  0  0
    2.8579   -2.4750    0.0000 O   0  0  0  0  0  0  0  0  0  0  0  0
    3.5724   -1.2375    0.0000 O   0  0  0  0  0  0  0  0  0  0  0  0
    1.4289    0.8250    0.0000 C   0  0  0  0  0  0  0  0  0  0  0  0
    0.7145    1.2375    0.0000 C   0  0  0  0  0  0  0  0  0  0  0  0
    0.7145    2.0625    0.0000 C   0  0  0  0  0  0  0  0  0  0  0  0
    1.4289    2.4750    0.0000 C   0  0  0  0  0  0  0  0  0  0  0  0
    2.1434    2.0625    0.0000 C   0  0  0  0  0  0  0  0  0  0  0  0
    2.1434    1.2375    0.0000 C   0  0  0  0  0  0  0  0  0  0  0  0
    1.4289    3.3000    0.0000 F   0  0  0  0  0  0  0  0  0  0  0  0
    0.0000    0.8250    0.0000 F   0  0  0  0  0  0  0  0  0  0  0  0
   -1.4289   -1.6500    0.0000 F   0  0  0  0  0  0  0  0  0  0  0  0
  1  2  1  0  0  0  0
  2  3  1  0  0  0  0
  3  4  1  0  0  0  0
  4  5  1  0  0  0  0
  5  6  1  0  0  0  0
  6  7  1  0  0  0  0
  2  7  1  0  0  0  0
  4  8  1  0  0  0  0
  8  9  2  0  0  0  0
  9 10  1  0  0  0  0
 10 11  2  0  0  0  0
 11 12  1  0  0  0  0
 12 13  2  0  0  0  0
  8 13  1  0  0  0  0
 12 14  1  0  0  0  0
 14 15  1  0  0  0  0
 15 16  2  0  0  0  0
 16 17  1  0  0  0  0
 11 17  1  0  0  0  0
 17 18  2  0  0  0  0
 16 19  1  0  0  0  0
 19 20  2  0  0  0  0
 19 21  1  0  0  0  0
 14 22  1  0  0  0  0
 22 23  2  0  0  0  0
 23 24  1  0  0  0  0
 24 25  2  0  0  0  0
 25 26  1  0  0  0  0
 26 27  2  0  0  0  0
 22 27  1  0  0  0  0
 25 28  1  0  0  0  0
 23 29  1  0  0  0  0
  9 30  1  0  0  0  0
M  END
> <Molar mass [g/mol] [MProp:scalar:double]>
417.388

> <Exact mass [Da] [MProp:scalar:double]>
417.130025941

> <Formula>
C21H18F3N3O3

> <Composition>
C (60.43%), H (4.35%), F (13.66%), N (10.07%), O (11.50%)

> <Lipinski's rule of five [MProp:scalar:boolean]>
true

> <Atom count [MProp:scalar:integer]>
48

> <Heavy atom count [MProp:scalar:integer]>
30

> <Asymmetric atom count [MProp:scalar:integer]>
1

> <Rotatable bond count [MProp:scalar:integer]>
3

> <Ring count [MProp:scalar:integer]>
4

> <Aromatic ring count [MProp:scalar:integer]>
3

> <Hetero ring count [MProp:scalar:integer]>
2

> <FSP3 [MProp:scalar:double]>
0.24

> <Hydrogen bond donor count [MProp:scalar:integer]>
2

> <Hydrogen bond acceptor count [MProp:scalar:integer]>
6

> <Formal charge [MProp:scalar:integer]>
0

> <Topological polar surface area [A^2] [MProp:scalar:double]>
72.88

> <Polarizability [A^3] [MProp:scalar:double]>
38.34

> <Molar refractivity [cm^3/mol] [MProp:scalar:double]>
104.53

> <Van der Waals volume [A^3] [MProp:scalar:double]>
341.28

> <Minimum projection area [A^2] [MProp:scalar:double]>
56.11

> <Maximum projection area [A^2] [MProp:scalar:double]>
114.72

> <Minimum projection radius [A] [MProp:scalar:double]>
6.68

> <Maximum projection radius [A] [MProp:scalar:double]>
8.07

> <Van der Waals surface area [A^2] [MProp:scalar:double]>
522.78

> <Solvent accessible surface area [A^2] [MProp:scalar:double]>
561.29

> <Strongest acidic pKa [MProp:scalar:double]>
6.2

> <Strongest basic pKa [MProp:scalar:double]>
8.78

> <Isoelectric point [MProp:scalar:double]>
7.64

> <Intrinsic solubility [logS] [MProp:scalar:double]>
-4.45

> <Solubility category>
Moderate

> <logP [MProp:scalar:double]>
1.21

> <logD_PH0 [MProp:scalar:double]>
0.25

> <logD_PH1 [MProp:scalar:double]>
0.25

> <logD_PH2 [MProp:scalar:double]>
0.25

> <logD_PH3 [MProp:scalar:double]>
0.26

> <logD_PH4 [MProp:scalar:double]>
0.28

> <logD_PH5 [MProp:scalar:double]>
0.45

> <logD_PH6 [MProp:scalar:double]>
0.92

> <logD_PH7 [MProp:scalar:double]>
1.21

> <logD_PH8 [MProp:scalar:double]>
1.21

> <logD_PH9 [MProp:scalar:double]>
0.88

> <logD_PH10 [MProp:scalar:double]>
0.29

> <logD_PH11 [MProp:scalar:double]>
0.01

> <logD_PH12 [MProp:scalar:double]>
-0.03

> <logD_PH13 [MProp:scalar:double]>
-0.03

> <logD_PH14 [MProp:scalar:double]>
-0.03

> <HLB [MProp:scalar:double]>
12.23

> <IUPAC name>
1-(2,4-difluorophenyl)-6-fluoro-7-(3-methylpiperazin-1-yl)-4-oxo-1,4-dihydroquinoline-3-carboxylic acid

> <SMILES>
CC1CN(CCN1)C1=C(F)C=C2C(=O)C(=CN(C2=C1)C1=C(F)C=C(F)C=C1)C(O)=O

> <InChI>
InChI=1/C21H18F3N3O3/c1-11-9-26(5-4-25-11)19-8-18-13(7-16(19)24)20(28)14(21(29)30)10-27(18)17-3-2-12(22)6-15(17)23/h2-3,6-8,10-11,25H,4-5,9H2,1H3,(H,29,30)

> <InChIKey>
QKDHBVNJCZBTMR-UHFFFAOYNA-N

> <Traditional name>
temafloxacin

> <Common names>
omniflox; temafloxacin; temafloxacin (product); temafloxacin (substance); temafloxacin preparation

> <CAS Registry Numbers(R)>
108319-06-8

$$$$
Trovafloxacin
  Mrv2222 01232613222D          

 30 34  0  0  1  0            999 V2000
   -0.0862   -2.4705    0.0000 C   0  0  0  0  0  0  0  0  0  0  0  0
   -0.8932   -2.6420    0.0000 C   0  0  2  0  0  0  0  0  0  0  0  0
   -1.3057   -1.9275    0.0000 C   0  0  1  0  0  0  0  0  0  0  0  0
   -1.7182   -2.6420    0.0000 C   0  0  0  0  0  0  0  0  0  0  0  0
   -2.4327   -3.0545    0.0000 N   0  0  0  0  0  0  0  0  0  0  0  0
   -0.7537   -1.3144    0.0000 C   0  0  0  0  0  0  0  0  0  0  0  0
    0.0000   -1.6500    0.0000 N   0  0  0  0  0  0  0  0  0  0  0  0
    0.7145   -1.2375    0.0000 C   0  0  0  0  0  0  0  0  0  0  0  0
    0.7145   -0.4125    0.0000 C   0  0  0  0  0  0  0  0  0  0  0  0
    1.4289    0.0000    0.0000 C   0  0  0  0  0  0  0  0  0  0  0  0
    2.1434   -0.4125    0.0000 C   0  0  0  0  0  0  0  0  0  0  0  0
    2.8579    0.0000    0.0000 C   0  0  0  0  0  0  0  0  0  0  0  0
    2.8579    0.8250    0.0000 O   0  0  0  0  0  0  0  0  0  0  0  0
    3.5724   -0.4125    0.0000 C   0  0  0  0  0  0  0  0  0  0  0  0
    3.5724   -1.2375    0.0000 C   0  0  0  0  0  0  0  0  0  0  0  0
    2.8579   -1.6500    0.0000 N   0  0  0  0  0  0  0  0  0  0  0  0
    2.1434   -1.2375    0.0000 C   0  0  0  0  0  0  0  0  0  0  0  0
    1.4289   -1.6500    0.0000 N   0  0  0  0  0  0  0  0  0  0  0  0
    2.8579   -2.4750    0.0000 C   0  0  0  0  0  0  0  0  0  0  0  0
    3.5724   -2.8875    0.0000 C   0  0  0  0  0  0  0  0  0  0  0  0
    3.5724   -3.7125    0.0000 C   0  0  0  0  0  0  0  0  0  0  0  0
    2.8579   -4.1250    0.0000 C   0  0  0  0  0  0  0  0  0  0  0  0
    2.1434   -3.7125    0.0000 C   0  0  0  0  0  0  0  0  0  0  0  0
    2.1434   -2.8875    0.0000 C   0  0  0  0  0  0  0  0  0  0  0  0
    2.8579   -4.9500    0.0000 F   0  0  0  0  0  0  0  0  0  0  0  0
    4.2868   -2.4750    0.0000 F   0  0  0  0  0  0  0  0  0  0  0  0
    4.2868    0.0000    0.0000 C   0  0  0  0  0  0  0  0  0  0  0  0
    5.0013   -0.4125    0.0000 O   0  0  0  0  0  0  0  0  0  0  0  0
    4.2868    0.8250    0.0000 O   0  0  0  0  0  0  0  0  0  0  0  0
    0.0000    0.0000    0.0000 F   0  0  0  0  0  0  0  0  0  0  0  0
  2  1  1  1  0  0  0
  2  3  1  0  0  0  0
  3  4  1  0  0  0  0
  2  4  1  0  0  0  0
  4  5  1  0  0  0  0
  3  6  1  1  0  0  0
  6  7  1  0  0  0  0
  1  7  1  0  0  0  0
  7  8  1  0  0  0  0
  8  9  2  0  0  0  0
  9 10  1  0  0  0  0
 10 11  2  0  0  0  0
 11 12  1  0  0  0  0
 12 13  2  0  0  0  0
 12 14  1  0  0  0  0
 14 15  2  0  0  0  0
 15 16  1  0  0  0  0
 16 17  1  0  0  0  0
 11 17  1  0  0  0  0
 17 18  2  0  0  0  0
  8 18  1  0  0  0  0
 16 19  1  0  0  0  0
 19 20  2  0  0  0  0
 20 21  1  0  0  0  0
 21 22  2  0  0  0  0
 22 23  1  0  0  0  0
 23 24  2  0  0  0  0
 19 24  1  0  0  0  0
 22 25  1  0  0  0  0
 20 26  1  0  0  0  0
 14 27  1  0  0  0  0
 27 28  2  0  0  0  0
 27 29  1  0  0  0  0
  9 30  1  0  0  0  0
M  END
> <Molar mass [g/mol] [MProp:scalar:double]>
416.36

> <Exact mass [Da] [MProp:scalar:double]>
416.109624848

> <Formula>
C20H15F3N4O3

> <Composition>
C (57.70%), H (3.63%), F (13.69%), N (13.46%), O (11.53%)

> <Lipinski's rule of five [MProp:scalar:boolean]>
true

> <Atom count [MProp:scalar:integer]>
45

> <Heavy atom count [MProp:scalar:integer]>
30

> <Asymmetric atom count [MProp:scalar:integer]>
3

> <Rotatable bond count [MProp:scalar:integer]>
3

> <Ring count [MProp:scalar:integer]>
5

> <Aromatic ring count [MProp:scalar:integer]>
3

> <Hetero ring count [MProp:scalar:integer]>
3

> <FSP3 [MProp:scalar:double]>
0.25

> <Hydrogen bond donor count [MProp:scalar:integer]>
2

> <Hydrogen bond acceptor count [MProp:scalar:integer]>
7

> <Formal charge [MProp:scalar:integer]>
0

> <Topological polar surface area [A^2] [MProp:scalar:double]>
99.76

> <Polarizability [A^3] [MProp:scalar:double]>
36.82

> <Molar refractivity [cm^3/mol] [MProp:scalar:double]>
101.04

> <Van der Waals volume [A^3] [MProp:scalar:double]>
323.84

> <Minimum projection area [A^2] [MProp:scalar:double]>
54.17

> <Maximum projection area [A^2] [MProp:scalar:double]>
111.53

> <Minimum projection radius [A] [MProp:scalar:double]>
6.36

> <Maximum projection radius [A] [MProp:scalar:double]>
8.04

> <Van der Waals surface area [A^2] [MProp:scalar:double]>
484.01

> <Solvent accessible surface area [A^2] [MProp:scalar:double]>
540.43

> <Strongest acidic pKa [MProp:scalar:double]>
6.01

> <Strongest basic pKa [MProp:scalar:double]>
8.92

> <Isoelectric point [MProp:scalar:double]>
7.61

> <Intrinsic solubility [logS] [MProp:scalar:double]>
-5.5

> <Solubility category>
Low

> <logP [MProp:scalar:double]>
0.19

> <logD_PH0 [MProp:scalar:double]>
-1.59

> <logD_PH1 [MProp:scalar:double]>
-0.9

> <logD_PH2 [MProp:scalar:double]>
-0.67

> <logD_PH3 [MProp:scalar:double]>
-0.63

> <logD_PH4 [MProp:scalar:double]>
-0.61

> <logD_PH5 [MProp:scalar:double]>
-0.44

> <logD_PH6 [MProp:scalar:double]>
-0.02

> <logD_PH7 [MProp:scalar:double]>
0.19

> <logD_PH8 [MProp:scalar:double]>
0.18

> <logD_PH9 [MProp:scalar:double]>
-0.09

> <logD_PH10 [MProp:scalar:double]>
-0.7

> <logD_PH11 [MProp:scalar:double]>
-1.06

> <logD_PH12 [MProp:scalar:double]>
-1.12

> <logD_PH13 [MProp:scalar:double]>
-1.13

> <logD_PH14 [MProp:scalar:double]>
-1.13

> <HLB [MProp:scalar:double]>
12.43

> <IUPAC name>
7-[(1R,5S)-6-amino-3-azabicyclo[3.1.0]hexan-3-yl]-1-(2,4-difluorophenyl)-6-fluoro-4-oxo-1,4-dihydro-1,8-naphthyridine-3-carboxylic acid

> <SMILES>
NC1[C@@H]2CN(C[C@H]12)C1=C(F)C=C2C(=O)C(=CN(C3=C(F)C=C(F)C=C3)C2=N1)C(O)=O

> <InChI>
InChI=1S/C20H15F3N4O3/c21-8-1-2-15(13(22)3-8)27-7-12(20(29)30)17(28)9-4-14(23)19(25-18(9)27)26-5-10-11(6-26)16(10)24/h1-4,7,10-11,16H,5-6,24H2,(H,29,30)/t10-,11+,16?

> <InChIKey>
WVPSKSLAZQPAKQ-SOSAQKQKSA-N

> <Traditional name>
trovafloxacin

> <Common names>
N/A

> <CAS Registry Numbers(R)>
147059-72-1, 146836-84-2

$$$$
Aztreonam
  Mrv2222 01232613222D          

 28 29  0  0  1  0            999 V2000
   -0.1999   -2.0755    0.0000 C   0  0  0  0  0  0  0  0  0  0  0  0
   -0.1999   -2.9005    0.0000 C   0  0  1  0  0  0  0  0  0  0  0  0
    0.3835   -3.4839    0.0000 C   0  0  1  0  0  0  0  0  0  0  0  0
   -0.1999   -4.0673    0.0000 C   0  0  0  0  0  0  0  0  0  0  0  0
   -0.1999   -4.8923    0.0000 O   0  0  0  0  0  0  0  0  0  0  0  0
   -0.7833   -3.4839    0.0000 N   0  0  0  0  0  0  0  0  0  0  0  0
   -1.6083   -3.4839    0.0000 S   0  0  0  0  0  0  0  0  0  0  0  0
   -2.4333   -3.4839    0.0000 O   0  0  0  0  0  0  0  0  0  0  0  0
   -1.6083   -4.3089    0.0000 O   0  0  0  0  0  0  0  0  0  0  0  0
   -1.6083   -2.6589    0.0000 O   0  0  0  0  0  0  0  0  0  0  0  0
    1.2085   -3.4839    0.0000 N   0  0  0  0  0  0  0  0  0  0  0  0
    1.6210   -2.7694    0.0000 C   0  0  0  0  0  0  0  0  0  0  0  0
    1.2085   -2.0550    0.0000 O   0  0  0  0  0  0  0  0  0  0  0  0
    2.4460   -2.7694    0.0000 C   0  0  0  0  0  0  0  0  0  0  0  0
    2.8585   -3.4839    0.0000 N   0  0  0  0  0  0  0  0  0  0  0  0
    2.4460   -4.1984    0.0000 O   0  0  0  0  0  0  0  0  0  0  0  0
    2.8585   -4.9128    0.0000 C   0  0  0  0  0  0  0  0  0  0  0  0
    3.5729   -4.5003    0.0000 C   0  0  0  0  0  0  0  0  0  0  0  0
    3.2710   -5.6273    0.0000 C   0  0  0  0  0  0  0  0  0  0  0  0
    2.1440   -5.3253    0.0000 C   0  0  0  0  0  0  0  0  0  0  0  0
    1.4295   -4.9128    0.0000 O   0  0  0  0  0  0  0  0  0  0  0  0
    2.1440   -6.1503    0.0000 O   0  0  0  0  0  0  0  0  0  0  0  0
    2.8585   -2.0550    0.0000 C   0  0  0  0  0  0  0  0  0  0  0  0
    2.5229   -1.3013    0.0000 C   0  0  0  0  0  0  0  0  0  0  0  0
    3.1360   -0.7492    0.0000 S   0  0  0  0  0  0  0  0  0  0  0  0
    3.8505   -1.1617    0.0000 C   0  0  0  0  0  0  0  0  0  0  0  0
    3.6789   -1.9687    0.0000 N   0  0  0  0  0  0  0  0  0  0  0  0
    4.6041   -0.8262    0.0000 N   0  0  0  0  0  0  0  0  0  0  0  0
  2  1  1  1  0  0  0
  2  3  1  0  0  0  0
  3  4  1  0  0  0  0
  4  5  2  0  0  0  0
  4  6  1  0  0  0  0
  2  6  1  0  0  0  0
  6  7  1  0  0  0  0
  7  8  2  0  0  0  0
  7  9  2  0  0  0  0
  7 10  1  0  0  0  0
  3 11  1  6  0  0  0
 11 12  1  0  0  0  0
 12 13  2  0  0  0  0
 12 14  1  0  0  0  0
 14 15  2  0  0  0  0
 15 16  1  0  0  0  0
 16 17  1  0  0  0  0
 17 18  1  0  0  0  0
 17 19  1  0  0  0  0
 17 20  1  0  0  0  0
 20 21  2  0  0  0  0
 20 22  1  0  0  0  0
 14 23  1  0  0  0  0
 23 24  2  0  0  0  0
 24 25  1  0  0  0  0
 25 26  1  0  0  0  0
 26 27  2  0  0  0  0
 23 27  1  0  0  0  0
 26 28  1  0  0  0  0
M  END
> <Molar mass [g/mol] [MProp:scalar:double]>
435.43

> <Exact mass [Da] [MProp:scalar:double]>
435.051854875

> <Formula>
C13H17N5O8S2

> <Composition>
C (35.86%), H (3.94%), N (16.08%), O (29.39%), S (14.73%)

> <Lipinski's rule of five [MProp:scalar:boolean]>
false

> <Atom count [MProp:scalar:integer]>
45

> <Heavy atom count [MProp:scalar:integer]>
28

> <Asymmetric atom count [MProp:scalar:integer]>
2

> <Rotatable bond count [MProp:scalar:integer]>
6

> <Ring count [MProp:scalar:integer]>
2

> <Aromatic ring count [MProp:scalar:integer]>
1

> <Hetero ring count [MProp:scalar:integer]>
2

> <FSP3 [MProp:scalar:double]>
0.46

> <Hydrogen bond donor count [MProp:scalar:integer]>
4

> <Hydrogen bond acceptor count [MProp:scalar:integer]>
11

> <Formal charge [MProp:scalar:integer]>
0

> <Topological polar surface area [A^2] [MProp:scalar:double]>
201.58

> <Polarizability [A^3] [MProp:scalar:double]>
36.66

> <Molar refractivity [cm^3/mol] [MProp:scalar:double]>
92.99

> <Van der Waals volume [A^3] [MProp:scalar:double]>
336.05

> <Minimum projection area [A^2] [MProp:scalar:double]>
56.23

> <Maximum projection area [A^2] [MProp:scalar:double]>
101.23

> <Minimum projection radius [A] [MProp:scalar:double]>
5.63

> <Maximum projection radius [A] [MProp:scalar:double]>
7.62

> <Van der Waals surface area [A^2] [MProp:scalar:double]>
537.79

> <Solvent accessible surface area [A^2] [MProp:scalar:double]>
605.86

> <Strongest acidic pKa [MProp:scalar:double]>
-1.77

> <Strongest basic pKa [MProp:scalar:double]>
3.91

> <Isoelectric point [MProp:scalar:double]>
1.74

> <Intrinsic solubility [logS] [MProp:scalar:double]>
-3.2

> <Solubility category>
High

> <logP [MProp:scalar:double]>
-3.12

> <logD_PH0 [MProp:scalar:double]>
-3.76

> <logD_PH1 [MProp:scalar:double]>
-3.25

> <logD_PH2 [MProp:scalar:double]>
-3.12

> <logD_PH3 [MProp:scalar:double]>
-3.16

> <logD_PH4 [MProp:scalar:double]>
-3.48

> <logD_PH5 [MProp:scalar:double]>
-4.27

> <logD_PH6 [MProp:scalar:double]>
-5.21

> <logD_PH7 [MProp:scalar:double]>
-5.96

> <logD_PH8 [MProp:scalar:double]>
-6.23

> <logD_PH9 [MProp:scalar:double]>
-6.28

> <logD_PH10 [MProp:scalar:double]>
-6.31

> <logD_PH11 [MProp:scalar:double]>
-6.52

> <logD_PH12 [MProp:scalar:double]>
-6.98

> <logD_PH13 [MProp:scalar:double]>
-7.19

> <logD_PH14 [MProp:scalar:double]>
-7.29

> <HLB [MProp:scalar:double]>
22.6

> <IUPAC name>
2-{[(Z)-[(2-amino-1,3-thiazol-4-yl)({[(2S,3S)-2-methyl-4-oxo-1-sulfoazetidin-3-yl]carbamoyl})methylidene]amino]oxy}-2-methylpropanoic acid

> <SMILES>
C[C@H]1[C@H](NC(=O)C(=N/OC(C)(C)C(O)=O)\C2=CSC(N)=N2)C(=O)N1S(O)(=O)=O

> <InChI>
InChI=1S/C13H17N5O8S2/c1-5-7(10(20)18(5)28(23,24)25)16-9(19)8(6-4-27-12(14)15-6)17-26-13(2,3)11(21)22/h4-5,7H,1-3H3,(H2,14,15)(H,16,19)(H,21,22)(H,23,24,25)/b17-8-/t5-,7-/m0/s1

> <InChIKey>
WZPBZJONDBGPKJ-VEHQQRBSSA-N

> <Traditional name>
aztreonam

> <Common names>
aztreonam; 氨曲南

> <CAS Registry Numbers(R)>
78110-38-0, 149496-40-2

$$$$
Fosfomycin
  Mrv2222 01232613222D          

  8  8  0  0  1  0            999 V2000
    0.2382    1.7138    0.0000 C   0  0  0  0  0  0  0  0  0  0  0  0
    0.2382    0.8888    0.0000 C   0  0  1  0  0  0  0  0  0  0  0  0
    0.6507    0.1743    0.0000 C   0  0  2  0  0  0  0  0  0  0  0  0
   -0.1743    0.1743    0.0000 O   0  0  0  0  0  0  0  0  0  0  0  0
    1.3651   -0.2382    0.0000 P   0  0  0  0  0  0  0  0  0  0  0  0
    2.0796   -0.6507    0.0000 O   0  0  0  0  0  0  0  0  0  0  0  0
    0.9526   -0.9526    0.0000 O   0  0  0  0  0  0  0  0  0  0  0  0
    1.7776    0.4763    0.0000 O   0  0  0  0  0  0  0  0  0  0  0  0
  2  1  1  1  0  0  0
  2  3  1  0  0  0  0
  3  4  1  0  0  0  0
  2  4  1  0  0  0  0
  3  5  1  1  0  0  0
  5  6  2  0  0  0  0
  5  7  1  0  0  0  0
  5  8  1  0  0  0  0
M  END
> <Molar mass [g/mol] [MProp:scalar:double]>
138.059

> <Exact mass [Da] [MProp:scalar:double]>
138.008195703

> <Formula>
C3H7O4P

> <Composition>
C (26.10%), H (5.11%), O (46.35%), P (22.44%)

> <Lipinski's rule of five [MProp:scalar:boolean]>
true

> <Atom count [MProp:scalar:integer]>
15

> <Heavy atom count [MProp:scalar:integer]>
8

> <Asymmetric atom count [MProp:scalar:integer]>
2

> <Rotatable bond count [MProp:scalar:integer]>
1

> <Ring count [MProp:scalar:integer]>
1

> <Aromatic ring count [MProp:scalar:integer]>
0

> <Hetero ring count [MProp:scalar:integer]>
1

> <FSP3 [MProp:scalar:double]>
1.0

> <Hydrogen bond donor count [MProp:scalar:integer]>
2

> <Hydrogen bond acceptor count [MProp:scalar:integer]>
4

> <Formal charge [MProp:scalar:integer]>
0

> <Topological polar surface area [A^2] [MProp:scalar:double]>
70.06

> <Polarizability [A^3] [MProp:scalar:double]>
10.71

> <Molar refractivity [cm^3/mol] [MProp:scalar:double]>
25.87

> <Van der Waals volume [A^3] [MProp:scalar:double]>
104.07

> <Minimum projection area [A^2] [MProp:scalar:double]>
24.36

> <Maximum projection area [A^2] [MProp:scalar:double]>
36.48

> <Minimum projection radius [A] [MProp:scalar:double]>
3.16

> <Maximum projection radius [A] [MProp:scalar:double]>
4.4

> <Van der Waals surface area [A^2] [MProp:scalar:double]>
179.07

> <Solvent accessible surface area [A^2] [MProp:scalar:double]>
280.4

> <Strongest acidic pKa [MProp:scalar:double]>
1.25

> <Strongest basic pKa>
N/A

> <Isoelectric point>
N/A

> <Intrinsic solubility [logS] [MProp:scalar:double]>
1.63

> <Solubility category>
High

> <logP [MProp:scalar:double]>
-0.74

> <logD_PH0 [MProp:scalar:double]>
-0.76

> <logD_PH1 [MProp:scalar:double]>
-0.93

> <logD_PH2 [MProp:scalar:double]>
-1.55

> <logD_PH3 [MProp:scalar:double]>
-2.39

> <logD_PH4 [MProp:scalar:double]>
-2.91

> <logD_PH5 [MProp:scalar:double]>
-3.03

> <logD_PH6 [MProp:scalar:double]>
-3.05

> <logD_PH7 [MProp:scalar:double]>
-3.1

> <logD_PH8 [MProp:scalar:double]>
-3.44

> <logD_PH9 [MProp:scalar:double]>
-4.22

> <logD_PH10 [MProp:scalar:double]>
-4.98

> <logD_PH11 [MProp:scalar:double]>
-5.3

> <logD_PH12 [MProp:scalar:double]>
-5.34

> <logD_PH13 [MProp:scalar:double]>
-5.35

> <logD_PH14 [MProp:scalar:double]>
-5.35

> <HLB [MProp:scalar:double]>
12.51

> <IUPAC name>
[(2R,3S)-3-methyloxiran-2-yl]phosphonic acid

> <SMILES>
C[C@@H]1O[C@@H]1P(O)(O)=O

> <InChI>
InChI=1S/C3H7O4P/c1-2-3(7-2)8(4,5)6/h2-3H,1H3,(H2,4,5,6)/t2-,3+/m0/s1

> <InChIKey>
YMDXZJFXQJVXBF-STHAYSLISA-N

> <Traditional name>
fosfomycin

> <Common names>
FCM; antibiotic 833A; fosfocina; fosfomicina; fosfomycin; fosfomycin (product); fosfomycin (substance); fosfomycin compound with trometamol; fosfomycin disodium salt; fosfomycin preparation; fosfomycin sodium; fosfomycin trometamol salt; fosfomycin tromethamine (substance); fosfomycin tromethamine preparation; fosfomycine; fosfomycinum; fosfonomycin; monuril; monurol; phosphomycin; phosphomycin disodium salt; phosphonemycin; phosphonomycin; tromethamine, fosfomycin; veramina; 磷霉素

> <CAS Registry Numbers(R)>
23155-02-4, 25030-76-6, 27354-29-6

$$$$
Faropenem
  Mrv2222 01232613222D          

 19 21  0  0  1  0            999 V2000
   -1.5279   -1.3021    0.0000 C   0  0  0  0  0  0  0  0  0  0  0  0
   -0.7310   -1.5156    0.0000 C   0  0  2  0  0  0  0  0  0  0  0  0
   -0.1477   -0.9323    0.0000 C   0  0  2  0  0  0  0  0  0  0  0  0
    0.6773   -0.9323    0.0000 C   0  0  2  0  0  0  0  0  0  0  0  0
    0.6773   -0.1073    0.0000 N   0  0  0  0  0  0  0  0  0  0  0  0
   -0.1477   -0.1073    0.0000 C   0  0  0  0  0  0  0  0  0  0  0  0
   -0.7310    0.4761    0.0000 O   0  0  0  0  0  0  0  0  0  0  0  0
    1.4620    0.1477    0.0000 C   0  0  0  0  0  0  0  0  0  0  0  0
    1.9469   -0.5198    0.0000 C   0  0  0  0  0  0  0  0  0  0  0  0
    1.4620   -1.1872    0.0000 S   0  0  0  0  0  0  0  0  0  0  0  0
    2.7719   -0.5198    0.0000 C   0  0  1  0  0  0  0  0  0  0  0  0
    3.2568    0.1477    0.0000 C   0  0  0  0  0  0  0  0  0  0  0  0
    4.0414   -0.1073    0.0000 C   0  0  0  0  0  0  0  0  0  0  0  0
    4.0414   -0.9323    0.0000 C   0  0  0  0  0  0  0  0  0  0  0  0
    3.2568   -1.1872    0.0000 O   0  0  0  0  0  0  0  0  0  0  0  0
    1.7169    0.9323    0.0000 C   0  0  0  0  0  0  0  0  0  0  0  0
    2.5239    1.1038    0.0000 O   0  0  0  0  0  0  0  0  0  0  0  0
    1.1649    1.5454    0.0000 O   0  0  0  0  0  0  0  0  0  0  0  0
   -0.5175   -2.3125    0.0000 O   0  0  0  0  0  0  0  0  0  0  0  0
  2  1  1  0  0  0  0
  3  2  1  1  0  0  0
  3  4  1  0  0  0  0
  4  5  1  6  0  0  0
  5  6  1  0  0  0  0
  3  6  1  0  0  0  0
  6  7  2  0  0  0  0
  5  8  1  0  0  0  0
  8  9  2  0  0  0  0
  9 10  1  0  0  0  0
  4 10  1  0  0  0  0
 11  9  1  1  0  0  0
 11 12  1  0  0  0  0
 12 13  1  0  0  0  0
 13 14  1  0  0  0  0
 14 15  1  0  0  0  0
 11 15  1  0  0  0  0
  8 16  1  0  0  0  0
 16 17  2  0  0  0  0
 16 18  1  0  0  0  0
  2 19  1  6  0  0  0
M  END
> <Molar mass [g/mol] [MProp:scalar:double]>
285.31

> <Exact mass [Da] [MProp:scalar:double]>
285.067093761

> <Formula>
C12H15NO5S

> <Composition>
C (50.52%), H (5.30%), N (4.91%), O (28.04%), S (11.24%)

> <Lipinski's rule of five [MProp:scalar:boolean]>
true

> <Atom count [MProp:scalar:integer]>
34

> <Heavy atom count [MProp:scalar:integer]>
19

> <Asymmetric atom count [MProp:scalar:integer]>
4

> <Rotatable bond count [MProp:scalar:integer]>
3

> <Ring count [MProp:scalar:integer]>
3

> <Aromatic ring count [MProp:scalar:integer]>
0

> <Hetero ring count [MProp:scalar:integer]>
3

> <FSP3 [MProp:scalar:double]>
0.67

> <Hydrogen bond donor count [MProp:scalar:integer]>
2

> <Hydrogen bond acceptor count [MProp:scalar:integer]>
5

> <Formal charge [MProp:scalar:integer]>
0

> <Topological polar surface area [A^2] [MProp:scalar:double]>
87.07

> <Polarizability [A^3] [MProp:scalar:double]>
26.68

> <Molar refractivity [cm^3/mol] [MProp:scalar:double]>
69.26

> <Van der Waals volume [A^3] [MProp:scalar:double]>
233.95

> <Minimum projection area [A^2] [MProp:scalar:double]>
38.36

> <Maximum projection area [A^2] [MProp:scalar:double]>
77.27

> <Minimum projection radius [A] [MProp:scalar:double]>
4.46

> <Maximum projection radius [A] [MProp:scalar:double]>
6.95

> <Van der Waals surface area [A^2] [MProp:scalar:double]>
355.33

> <Solvent accessible surface area [A^2] [MProp:scalar:double]>
422.65

> <Strongest acidic pKa [MProp:scalar:double]>
4.19

> <Strongest basic pKa [MProp:scalar:double]>
2.17

> <Isoelectric point [MProp:scalar:double]>
3.17

> <Intrinsic solubility [logS] [MProp:scalar:double]>
-2.14

> <Solubility category>
High

> <logP [MProp:scalar:double]>
-0.75

> <logD_PH0 [MProp:scalar:double]>
-2.9

> <logD_PH1 [MProp:scalar:double]>
-1.98

> <logD_PH2 [MProp:scalar:double]>
-1.18

> <logD_PH3 [MProp:scalar:double]>
-0.86

> <logD_PH4 [MProp:scalar:double]>
-1.0

> <logD_PH5 [MProp:scalar:double]>
-1.65

> <logD_PH6 [MProp:scalar:double]>
-2.59

> <logD_PH7 [MProp:scalar:double]>
-3.51

> <logD_PH8 [MProp:scalar:double]>
-4.11

> <logD_PH9 [MProp:scalar:double]>
-4.26

> <logD_PH10 [MProp:scalar:double]>
-4.3

> <logD_PH11 [MProp:scalar:double]>
-4.41

> <logD_PH12 [MProp:scalar:double]>
-4.94

> <logD_PH13 [MProp:scalar:double]>
-5.84

> <logD_PH14 [MProp:scalar:double]>
-6.8

> <HLB [MProp:scalar:double]>
17.95

> <IUPAC name>
(5R,6S)-6-[(1R)-1-hydroxyethyl]-7-oxo-3-[(2R)-oxolan-2-yl]-4-thia-1-azabicyclo[3.2.0]hept-2-ene-2-carboxylic acid

> <SMILES>
C[C@@H](O)[C@@H]1[C@H]2SC([C@H]3CCCO3)=C(N2C1=O)C(O)=O

> <InChI>
InChI=1S/C12H15NO5S/c1-5(14)7-10(15)13-8(12(16)17)9(19-11(7)13)6-3-2-4-18-6/h5-7,11,14H,2-4H2,1H3,(H,16,17)/t5-,6-,7+,11-/m1/s1

> <InChIKey>
HGGAKXAHAYOLDJ-FHZUQPTBSA-N

> <Traditional name>
faropenem

> <Common names>
faropenem; fropenem; 法罗培南

> <CAS Registry Numbers(R)>
106560-14-9

$$$$
Doripenem
  Mrv2222 01232613222D          

 27 29  0  0  1  0            999 V2000
    1.0396   -1.0396    0.0000 C   0  0  0  0  0  0  0  0  0  0  0  0
    0.7846   -0.2549    0.0000 C   0  0  2  0  0  0  0  0  0  0  0  0
    0.0000    0.0000    0.0000 C   0  0  2  0  0  0  0  0  0  0  0  0
   -0.8250    0.0000    0.0000 C   0  0  2  0  0  0  0  0  0  0  0  0
   -0.8250    0.8250    0.0000 C   0  0  0  0  0  0  0  0  0  0  0  0
   -1.4084    1.4084    0.0000 O   0  0  0  0  0  0  0  0  0  0  0  0
    0.0000    0.8250    0.0000 N   0  0  0  0  0  0  0  0  0  0  0  0
    0.7846    1.0799    0.0000 C   0  0  0  0  0  0  0  0  0  0  0  0
    1.2695    0.4125    0.0000 C   0  0  0  0  0  0  0  0  0  0  0  0
    2.0945    0.4125    0.0000 S   0  0  0  0  0  0  0  0  0  0  0  0
    2.5070   -0.3020    0.0000 C   0  0  1  0  0  0  0  0  0  0  0  0
    3.3275   -0.3882    0.0000 C   0  0  0  0  0  0  0  0  0  0  0  0
    3.4991   -1.1952    0.0000 C   0  0  2  0  0  0  0  0  0  0  0  0
    2.7846   -1.6077    0.0000 N   0  0  0  0  0  0  0  0  0  0  0  0
    2.1715   -1.0556    0.0000 C   0  0  0  0  0  0  0  0  0  0  0  0
    4.2527   -1.5307    0.0000 C   0  0  0  0  0  0  0  0  0  0  0  0
    4.3390   -2.3512    0.0000 N   0  0  0  0  0  0  0  0  0  0  0  0
    5.0926   -2.6868    0.0000 S   0  0  0  0  0  0  0  0  0  0  0  0
    5.8463   -3.0223    0.0000 O   0  0  0  0  0  0  0  0  0  0  0  0
    5.4282   -1.9331    0.0000 O   0  0  0  0  0  0  0  0  0  0  0  0
    4.7571   -3.4404    0.0000 N   0  0  0  0  0  0  0  0  0  0  0  0
    1.0396    1.8646    0.0000 C   0  0  0  0  0  0  0  0  0  0  0  0
    0.4875    2.4777    0.0000 O   0  0  0  0  0  0  0  0  0  0  0  0
    1.8465    2.0361    0.0000 O   0  0  0  0  0  0  0  0  0  0  0  0
   -1.4084   -0.5834    0.0000 C   0  0  1  0  0  0  0  0  0  0  0  0
   -1.1948   -1.3803    0.0000 C   0  0  0  0  0  0  0  0  0  0  0  0
   -2.2053   -0.3698    0.0000 O   0  0  0  0  0  0  0  0  0  0  0  0
  2  1  1  6  0  0  0
  3  2  1  0  0  0  0
  3  4  1  0  0  0  0
  4  5  1  0  0  0  0
  5  6  2  0  0  0  0
  5  7  1  0  0  0  0
  3  7  1  6  0  0  0
  7  8  1  0  0  0  0
  8  9  2  0  0  0  0
  2  9  1  0  0  0  0
  9 10  1  0  0  0  0
 11 10  1  1  0  0  0
 11 12  1  0  0  0  0
 13 12  1  0  0  0  0
 13 14  1  0  0  0  0
 14 15  1  0  0  0  0
 11 15  1  0  0  0  0
 13 16  1  1  0  0  0
 16 17  1  0  0  0  0
 17 18  1  0  0  0  0
 18 19  2  0  0  0  0
 18 20  2  0  0  0  0
 18 21  1  0  0  0  0
  8 22  1  0  0  0  0
 22 23  2  0  0  0  0
 22 24  1  0  0  0  0
  4 25  1  1  0  0  0
 25 26  1  0  0  0  0
 25 27  1  1  0  0  0
M  END
> <Molar mass [g/mol] [MProp:scalar:double]>
420.5

> <Exact mass [Da] [MProp:scalar:double]>
420.113726857

> <Formula>
C15H24N4O6S2

> <Composition>
C (42.85%), H (5.75%), N (13.32%), O (22.83%), S (15.25%)

> <Lipinski's rule of five [MProp:scalar:boolean]>
true

> <Atom count [MProp:scalar:integer]>
51

> <Heavy atom count [MProp:scalar:integer]>
27

> <Asymmetric atom count [MProp:scalar:integer]>
6

> <Rotatable bond count [MProp:scalar:integer]>
6

> <Ring count [MProp:scalar:integer]>
3

> <Aromatic ring count [MProp:scalar:integer]>
0

> <Hetero ring count [MProp:scalar:integer]>
3

> <FSP3 [MProp:scalar:double]>
0.73

> <Hydrogen bond donor count [MProp:scalar:integer]>
5

> <Hydrogen bond acceptor count [MProp:scalar:integer]>
7

> <Formal charge [MProp:scalar:integer]>
0

> <Topological polar surface area [A^2] [MProp:scalar:double]>
162.06

> <Polarizability [A^3] [MProp:scalar:double]>
39.55

> <Molar refractivity [cm^3/mol] [MProp:scalar:double]>
99.88

> <Van der Waals volume [A^3] [MProp:scalar:double]>
348.41

> <Minimum projection area [A^2] [MProp:scalar:double]>
53.65

> <Maximum projection area [A^2] [MProp:scalar:double]>
111.97

> <Minimum projection radius [A] [MProp:scalar:double]>
5.73

> <Maximum projection radius [A] [MProp:scalar:double]>
9.13

> <Van der Waals surface area [A^2] [MProp:scalar:double]>
551.59

> <Solvent accessible surface area [A^2] [MProp:scalar:double]>
586.02

> <Strongest acidic pKa [MProp:scalar:double]>
3.73

> <Strongest basic pKa [MProp:scalar:double]>
8.56

> <Isoelectric point [MProp:scalar:double]>
6.2

> <Intrinsic solubility [logS] [MProp:scalar:double]>
-2.05

> <Solubility category>
High

> <logP [MProp:scalar:double]>
-5.56

> <logD_PH0 [MProp:scalar:double]>
-8.72

> <logD_PH1 [MProp:scalar:double]>
-7.82

> <logD_PH2 [MProp:scalar:double]>
-6.92

> <logD_PH3 [MProp:scalar:double]>
-6.23

> <logD_PH4 [MProp:scalar:double]>
-5.73

> <logD_PH5 [MProp:scalar:double]>
-5.58

> <logD_PH6 [MProp:scalar:double]>
-5.56

> <logD_PH7 [MProp:scalar:double]>
-5.57

> <logD_PH8 [MProp:scalar:double]>
-5.66

> <logD_PH9 [MProp:scalar:double]>
-6.05

> <logD_PH10 [MProp:scalar:double]>
-6.56

> <logD_PH11 [MProp:scalar:double]>
-7.01

> <logD_PH12 [MProp:scalar:double]>
-7.56

> <logD_PH13 [MProp:scalar:double]>
-8.09

> <logD_PH14 [MProp:scalar:double]>
-8.47

> <HLB [MProp:scalar:double]>
27.83

> <IUPAC name>
(4R,5S,6S)-6-[(1R)-1-hydroxyethyl]-4-methyl-7-oxo-3-{[(3S,5S)-5-[(sulfamoylamino)methyl]pyrrolidin-3-yl]sulfanyl}-1-azabicyclo[3.2.0]hept-2-ene-2-carboxylic acid

> <SMILES>
C[C@@H](O)[C@@H]1[C@H]2[C@@H](C)C(S[C@@H]3CN[C@H](CNS(N)(=O)=O)C3)=C(N2C1=O)C(O)=O

> <InChI>
InChI=1S/C15H24N4O6S2/c1-6-11-10(7(2)20)14(21)19(11)12(15(22)23)13(6)26-9-3-8(17-5-9)4-18-27(16,24)25/h6-11,17-18,20H,3-5H2,1-2H3,(H,22,23)(H2,16,24,25)/t6-,7-,8+,9+,10-,11-/m1/s1

> <InChIKey>
AVAACINZEOAHHE-VFZPANTDSA-N

> <Traditional name>
doripenem

> <Common names>
doribax; doripenem

> <CAS Registry Numbers(R)>
148016-81-3

$$$$
Amoxicillin
  Mrv2222 01232613222D          

 25 27  0  0  1  0            999 V2000
    2.5600    1.8968    0.0000 C   0  0  0  0  0  0  0  0  0  0  0  0
    1.9469    1.3448    0.0000 C   0  0  0  0  0  0  0  0  0  0  0  0
    1.4620    0.6773    0.0000 C   0  0  1  0  0  0  0  0  0  0  0  0
    0.6773    0.9323    0.0000 N   0  0  0  0  0  0  0  0  0  0  0  0
    0.6773    1.7573    0.0000 C   0  0  2  0  0  0  0  0  0  0  0  0
    1.4620    2.0122    0.0000 S   0  0  0  0  0  0  0  0  0  0  0  0
   -0.1477    1.7573    0.0000 C   0  0  1  0  0  0  0  0  0  0  0  0
   -0.1477    0.9323    0.0000 C   0  0  0  0  0  0  0  0  0  0  0  0
   -0.7310    0.3489    0.0000 O   0  0  0  0  0  0  0  0  0  0  0  0
   -0.7310    2.3406    0.0000 N   0  0  0  0  0  0  0  0  0  0  0  0
   -1.5279    2.1271    0.0000 C   0  0  0  0  0  0  0  0  0  0  0  0
   -1.7414    1.3302    0.0000 O   0  0  0  0  0  0  0  0  0  0  0  0
   -2.1113    2.7105    0.0000 C   0  0  1  0  0  0  0  0  0  0  0  0
   -2.9082    2.4970    0.0000 C   0  0  0  0  0  0  0  0  0  0  0  0
   -3.1217    1.7001    0.0000 C   0  0  0  0  0  0  0  0  0  0  0  0
   -3.9186    1.4865    0.0000 C   0  0  0  0  0  0  0  0  0  0  0  0
   -4.5019    2.0699    0.0000 C   0  0  0  0  0  0  0  0  0  0  0  0
   -4.2884    2.8668    0.0000 C   0  0  0  0  0  0  0  0  0  0  0  0
   -3.4915    3.0803    0.0000 C   0  0  0  0  0  0  0  0  0  0  0  0
   -5.2988    1.8564    0.0000 O   0  0  0  0  0  0  0  0  0  0  0  0
   -1.8977    3.5074    0.0000 N   0  0  0  0  0  0  0  0  0  0  0  0
    1.7169   -0.1073    0.0000 C   0  0  0  0  0  0  0  0  0  0  0  0
    2.5239   -0.2788    0.0000 O   0  0  0  0  0  0  0  0  0  0  0  0
    1.1649   -0.7204    0.0000 O   0  0  0  0  0  0  0  0  0  0  0  0
    2.5600    0.7927    0.0000 C   0  0  0  0  0  0  0  0  0  0  0  0
  1  2  1  0  0  0  0
  3  2  1  0  0  0  0
  3  4  1  0  0  0  0
  5  4  1  1  0  0  0
  5  6  1  0  0  0  0
  2  6  1  0  0  0  0
  5  7  1  0  0  0  0
  7  8  1  0  0  0  0
  4  8  1  0  0  0  0
  8  9  2  0  0  0  0
  7 10  1  1  0  0  0
 10 11  1  0  0  0  0
 11 12  2  0  0  0  0
 13 11  1  0  0  0  0
 13 14  1  0  0  0  0
 14 15  2  0  0  0  0
 15 16  1  0  0  0  0
 16 17  2  0  0  0  0
 17 18  1  0  0  0  0
 18 19  2  0  0  0  0
 14 19  1  0  0  0  0
 17 20  1  0  0  0  0
 13 21  1  1  0  0  0
  3 22  1  6  0  0  0
 22 23  2  0  0  0  0
 22 24  1  0  0  0  0
  2 25  1  0  0  0  0
M  END
> <Molar mass [g/mol] [MProp:scalar:double]>
365.4

> <Exact mass [Da] [MProp:scalar:double]>
365.104541898

> <Formula>
C16H19N3O5S

> <Composition>
C (52.59%), H (5.24%), N (11.50%), O (21.89%), S (8.77%)

> <Lipinski's rule of five [MProp:scalar:boolean]>
true

> <Atom count [MProp:scalar:integer]>
44

> <Heavy atom count [MProp:scalar:integer]>
25

> <Asymmetric atom count [MProp:scalar:integer]>
4

> <Rotatable bond count [MProp:scalar:integer]>
4

> <Ring count [MProp:scalar:integer]>
3

> <Aromatic ring count [MProp:scalar:integer]>
1

> <Hetero ring count [MProp:scalar:integer]>
2

> <FSP3 [MProp:scalar:double]>
0.44

> <Hydrogen bond donor count [MProp:scalar:integer]>
4

> <Hydrogen bond acceptor count [MProp:scalar:integer]>
6

> <Formal charge [MProp:scalar:integer]>
0

> <Topological polar surface area [A^2] [MProp:scalar:double]>
132.96

> <Polarizability [A^3] [MProp:scalar:double]>
35.52

> <Molar refractivity [cm^3/mol] [MProp:scalar:double]>
89.5

> <Van der Waals volume [A^3] [MProp:scalar:double]>
307.07

> <Minimum projection area [A^2] [MProp:scalar:double]>
49.1

> <Maximum projection area [A^2] [MProp:scalar:double]>
86.12

> <Minimum projection radius [A] [MProp:scalar:double]>
4.4

> <Maximum projection radius [A] [MProp:scalar:double]>
8.02

> <Van der Waals surface area [A^2] [MProp:scalar:double]>
474.16

> <Solvent accessible surface area [A^2] [MProp:scalar:double]>
496.07

> <Strongest acidic pKa [MProp:scalar:double]>
3.41

> <Strongest basic pKa [MProp:scalar:double]>
7.22

> <Isoelectric point [MProp:scalar:double]>
5.36

> <Intrinsic solubility [logS] [MProp:scalar:double]>
-4.35

> <Solubility category>
Moderate

> <logP [MProp:scalar:double]>
-2.31

> <logD_PH0 [MProp:scalar:double]>
-7.33

> <logD_PH1 [MProp:scalar:double]>
-5.58

> <logD_PH2 [MProp:scalar:double]>
-4.0

> <logD_PH3 [MProp:scalar:double]>
-2.87

> <logD_PH4 [MProp:scalar:double]>
-2.39

> <logD_PH5 [MProp:scalar:double]>
-2.31

> <logD_PH6 [MProp:scalar:double]>
-2.32

> <logD_PH7 [MProp:scalar:double]>
-2.49

> <logD_PH8 [MProp:scalar:double]>
-3.04

> <logD_PH9 [MProp:scalar:double]>
-3.59

> <logD_PH10 [MProp:scalar:double]>
-4.19

> <logD_PH11 [MProp:scalar:double]>
-5.06

> <logD_PH12 [MProp:scalar:double]>
-5.86

> <logD_PH13 [MProp:scalar:double]>
-6.48

> <logD_PH14 [MProp:scalar:double]>
-6.82

> <HLB [MProp:scalar:double]>
27.24

> <IUPAC name>
(2S,5R,6R)-6-[(2R)-2-amino-2-(4-hydroxyphenyl)acetamido]-3,3-dimethyl-7-oxo-4-thia-1-azabicyclo[3.2.0]heptane-2-carboxylic acid

> <SMILES>
CC1(C)S[C@@H]2[C@H](NC(=O)[C@H](N)C3=CC=C(O)C=C3)C(=O)N2[C@H]1C(O)=O

> <InChI>
InChI=1S/C16H19N3O5S/c1-16(2)11(15(23)24)19-13(22)10(14(19)25-16)18-12(21)9(17)7-3-5-8(20)6-4-7/h3-6,9-11,14,20H,17H2,1-2H3,(H,18,21)(H,23,24)/t9-,10-,11+,14-/m1/s1

> <InChIKey>
LSQZJLSUYDQPKJ-NJBDSQKTSA-N

> <Traditional name>
amoxicillin

> <Common names>
(R*)-amoxicillin; (R*)-isomer amoxicillin; (r*)-amoxicillin; (r*)-isomer amoxicillin; AMC; AMOX; AMPC; D-amoxicillin; DisperMox; G.A., clamoxyl; actimoxi; amoclen; amolin; amopen; amopenixin; amoxi; amoxi-mast; amoxibiotic; amoxicaps; amoxicilina; amoxicilina [inn-spanish]; amoxicillin; amoxicillin (product); amoxicillin (substance); amoxicillin anhydrous; amoxicillin clariana brand; amoxicillin monopotassium salt; amoxicillin monosodium salt; amoxicillin pediatric; amoxicillin preparation; amoxicillin product; amoxicillin sodium (substance); amoxicillin trihydrate (substance); amoxicillin trihydrate preparation; amoxicillin, (R*)-; amoxicillin, (R*)-isomer; amoxicillin, (r*)-; amoxicillin, (r*)-isomer; amoxicilline; amoxicilline [inn-french]; amoxicilline trihydrate; amoxicillinum; amoxiden; amoxivet; amoxycillin; amoxycillin product; amoxycillin trihydrate; ampy-penyl; anemolin; apo-amoxi; aspenil; biomox; bristamox; cemoxin; clamoxyl; clamoxyl G.A.; clamoxyl g.a.; clamoxyl parenteral; clariana brand of amoxicillin; delacillin; dispermox; efpenix; flemoxin; g.a., clamoxyl; hiconcil; histocillin; hydroxyampicillin; imacillin; lamoxy; metafarma capsules; metifarma capsules; moxacin; moxal; moxatag; ospamox; p-hydroxyampicillin; pamoxicillin; parenteral, clamoxyl; penamox; pfizer brand of amoxicillin sodium salt; piramox; sawamox PM; sumox; tolodina; trihydrate, amoxicillin; unicillin; utimox; vetramox; wymox; 阿莫西林

> <CAS Registry Numbers(R)>
26787-78-0

$$$$
Ampicillin
  Mrv2222 01232613222D          

 24 26  0  0  1  0            999 V2000
    2.5600    1.8968    0.0000 C   0  0  0  0  0  0  0  0  0  0  0  0
    1.9469    1.3448    0.0000 C   0  0  0  0  0  0  0  0  0  0  0  0
    1.4620    0.6773    0.0000 C   0  0  1  0  0  0  0  0  0  0  0  0
    0.6773    0.9323    0.0000 N   0  0  0  0  0  0  0  0  0  0  0  0
    0.6773    1.7573    0.0000 C   0  0  2  0  0  0  0  0  0  0  0  0
    1.4620    2.0122    0.0000 S   0  0  0  0  0  0  0  0  0  0  0  0
   -0.1477    1.7573    0.0000 C   0  0  1  0  0  0  0  0  0  0  0  0
   -0.1477    0.9323    0.0000 C   0  0  0  0  0  0  0  0  0  0  0  0
   -0.7310    0.3489    0.0000 O   0  0  0  0  0  0  0  0  0  0  0  0
   -0.7310    2.3406    0.0000 N   0  0  0  0  0  0  0  0  0  0  0  0
   -1.5279    2.1271    0.0000 C   0  0  0  0  0  0  0  0  0  0  0  0
   -1.7414    1.3302    0.0000 O   0  0  0  0  0  0  0  0  0  0  0  0
   -2.1113    2.7105    0.0000 C   0  0  1  0  0  0  0  0  0  0  0  0
   -2.9082    2.4970    0.0000 C   0  0  0  0  0  0  0  0  0  0  0  0
   -3.1217    1.7001    0.0000 C   0  0  0  0  0  0  0  0  0  0  0  0
   -3.9186    1.4865    0.0000 C   0  0  0  0  0  0  0  0  0  0  0  0
   -4.5019    2.0699    0.0000 C   0  0  0  0  0  0  0  0  0  0  0  0
   -4.2884    2.8668    0.0000 C   0  0  0  0  0  0  0  0  0  0  0  0
   -3.4915    3.0803    0.0000 C   0  0  0  0  0  0  0  0  0  0  0  0
   -1.8977    3.5074    0.0000 N   0  0  0  0  0  0  0  0  0  0  0  0
    1.7169   -0.1073    0.0000 C   0  0  0  0  0  0  0  0  0  0  0  0
    2.5239   -0.2788    0.0000 O   0  0  0  0  0  0  0  0  0  0  0  0
    1.1649   -0.7204    0.0000 O   0  0  0  0  0  0  0  0  0  0  0  0
    2.5600    0.7927    0.0000 C   0  0  0  0  0  0  0  0  0  0  0  0
  1  2  1  0  0  0  0
  3  2  1  0  0  0  0
  3  4  1  0  0  0  0
  5  4  1  1  0  0  0
  5  6  1  0  0  0  0
  2  6  1  0  0  0  0
  5  7  1  0  0  0  0
  7  8  1  0  0  0  0
  4  8  1  0  0  0  0
  8  9  2  0  0  0  0
  7 10  1  1  0  0  0
 10 11  1  0  0  0  0
 11 12  2  0  0  0  0
 13 11  1  0  0  0  0
 13 14  1  0  0  0  0
 14 15  2  0  0  0  0
 15 16  1  0  0  0  0
 16 17  2  0  0  0  0
 17 18  1  0  0  0  0
 18 19  2  0  0  0  0
 14 19  1  0  0  0  0
 13 20  1  1  0  0  0
  3 21  1  6  0  0  0
 21 22  2  0  0  0  0
 21 23  1  0  0  0  0
  2 24  1  0  0  0  0
M  END
> <Molar mass [g/mol] [MProp:scalar:double]>
349.41

> <Exact mass [Da] [MProp:scalar:double]>
349.109627278

> <Formula>
C16H19N3O4S

> <Composition>
C (55.00%), H (5.48%), N (12.03%), O (18.32%), S (9.18%)

> <Lipinski's rule of five [MProp:scalar:boolean]>
true

> <Atom count [MProp:scalar:integer]>
43

> <Heavy atom count [MProp:scalar:integer]>
24

> <Asymmetric atom count [MProp:scalar:integer]>
4

> <Rotatable bond count [MProp:scalar:integer]>
4

> <Ring count [MProp:scalar:integer]>
3

> <Aromatic ring count [MProp:scalar:integer]>
1

> <Hetero ring count [MProp:scalar:integer]>
2

> <FSP3 [MProp:scalar:double]>
0.44

> <Hydrogen bond donor count [MProp:scalar:integer]>
3

> <Hydrogen bond acceptor count [MProp:scalar:integer]>
5

> <Formal charge [MProp:scalar:integer]>
0

> <Topological polar surface area [A^2] [MProp:scalar:double]>
112.73

> <Polarizability [A^3] [MProp:scalar:double]>
34.87

> <Molar refractivity [cm^3/mol] [MProp:scalar:double]>
87.52

> <Van der Waals volume [A^3] [MProp:scalar:double]>
298.53

> <Minimum projection area [A^2] [MProp:scalar:double]>
47.26

> <Maximum projection area [A^2] [MProp:scalar:double]>
82.87

> <Minimum projection radius [A] [MProp:scalar:double]>
4.39

> <Maximum projection radius [A] [MProp:scalar:double]>
7.92

> <Van der Waals surface area [A^2] [MProp:scalar:double]>
463.65

> <Solvent accessible surface area [A^2] [MProp:scalar:double]>
487.9

> <Strongest acidic pKa [MProp:scalar:double]>
3.41

> <Strongest basic pKa [MProp:scalar:double]>
7.23

> <Isoelectric point [MProp:scalar:double]>
5.37

> <Intrinsic solubility [logS] [MProp:scalar:double]>
-4.79

> <Solubility category>
Low

> <logP [MProp:scalar:double]>
-2.01

> <logD_PH0 [MProp:scalar:double]>
-7.03

> <logD_PH1 [MProp:scalar:double]>
-5.28

> <logD_PH2 [MProp:scalar:double]>
-3.69

> <logD_PH3 [MProp:scalar:double]>
-2.57

> <logD_PH4 [MProp:scalar:double]>
-2.09

> <logD_PH5 [MProp:scalar:double]>
-2.01

> <logD_PH6 [MProp:scalar:double]>
-2.02

> <logD_PH7 [MProp:scalar:double]>
-2.18

> <logD_PH8 [MProp:scalar:double]>
-2.72

> <logD_PH9 [MProp:scalar:double]>
-3.16

> <logD_PH10 [MProp:scalar:double]>
-3.26

> <logD_PH11 [MProp:scalar:double]>
-3.31

> <logD_PH12 [MProp:scalar:double]>
-3.54

> <logD_PH13 [MProp:scalar:double]>
-4.01

> <logD_PH14 [MProp:scalar:double]>
-4.31

> <HLB [MProp:scalar:double]>
25.7

> <IUPAC name>
(2S,5R,6R)-6-[(2R)-2-amino-2-phenylacetamido]-3,3-dimethyl-7-oxo-4-thia-1-azabicyclo[3.2.0]heptane-2-carboxylic acid

> <SMILES>
CC1(C)S[C@@H]2[C@H](NC(=O)[C@H](N)C3=CC=CC=C3)C(=O)N2[C@H]1C(O)=O

> <InChI>
InChI=1S/C16H19N3O4S/c1-16(2)11(15(22)23)19-13(21)10(14(19)24-16)18-12(20)9(17)8-6-4-3-5-7-8/h3-7,9-11,14H,17H2,1-2H3,(H,18,20)(H,22,23)/t9-,10-,11+,14-/m1/s1

> <InChIKey>
AVKUERGKIZMTKX-NJBDSQKTSA-N

> <Traditional name>
ampicillin

> <Common names>
ABPC; Ampicillin [Usan:Ban:Inn:Jan]; D-(-)-ampicillin; D-ampicillin; aminobenzylpenicillin; ampicilina; ampicilina [inn-spanish]; ampicillin; ampicillin acid; ampicillin anhydrate; ampicillin anhydrous; ampicillin base; ampicillina; ampicilline; ampicilline [inn-french]; ampicillinum; anhydrous ampicillin; 氨苄西林

> <CAS Registry Numbers(R)>
69-53-4

$$$$
Carbenicillin
  Mrv2222 01232613222D          

 26 28  0  0  1  0            999 V2000
   -0.8256   -0.5974    0.0000 C   0  0  0  0  0  0  0  0  0  0  0  0
   -1.2001    0.1376    0.0000 C   0  0  0  0  0  0  0  0  0  0  0  0
   -1.7193    0.7788    0.0000 C   0  0  1  0  0  0  0  0  0  0  0  0
   -1.2700    1.4707    0.0000 N   0  0  0  0  0  0  0  0  0  0  0  0
   -0.4731    1.2572    0.0000 C   0  0  2  0  0  0  0  0  0  0  0  0
   -0.4299    0.4333    0.0000 S   0  0  0  0  0  0  0  0  0  0  0  0
   -0.2596    2.0540    0.0000 C   0  0  1  0  0  0  0  0  0  0  0  0
   -1.0565    2.2676    0.0000 C   0  0  0  0  0  0  0  0  0  0  0  0
   -1.4690    2.9820    0.0000 O   0  0  0  0  0  0  0  0  0  0  0  0
    0.4549    2.4665    0.0000 N   0  0  0  0  0  0  0  0  0  0  0  0
    0.4549    3.2915    0.0000 C   0  0  0  0  0  0  0  0  0  0  0  0
   -0.2596    3.7040    0.0000 O   0  0  0  0  0  0  0  0  0  0  0  0
    1.1694    3.7040    0.0000 C   0  0  0  0  0  0  0  0  0  0  0  0
    1.1694    4.5290    0.0000 C   0  0  0  0  0  0  0  0  0  0  0  0
    0.4549    4.9415    0.0000 C   0  0  0  0  0  0  0  0  0  0  0  0
    0.4549    5.7665    0.0000 C   0  0  0  0  0  0  0  0  0  0  0  0
    1.1694    6.1790    0.0000 C   0  0  0  0  0  0  0  0  0  0  0  0
    1.8838    5.7665    0.0000 C   0  0  0  0  0  0  0  0  0  0  0  0
    1.8838    4.9415    0.0000 C   0  0  0  0  0  0  0  0  0  0  0  0
    1.8838    3.2915    0.0000 C   0  0  0  0  0  0  0  0  0  0  0  0
    2.5983    3.7040    0.0000 O   0  0  0  0  0  0  0  0  0  0  0  0
    1.8838    2.4665    0.0000 O   0  0  0  0  0  0  0  0  0  0  0  0
   -2.5432    0.7356    0.0000 C   0  0  0  0  0  0  0  0  0  0  0  0
   -2.9177    0.0005    0.0000 O   0  0  0  0  0  0  0  0  0  0  0  0
   -2.9925    1.4275    0.0000 O   0  0  0  0  0  0  0  0  0  0  0  0
   -1.8920   -0.3117    0.0000 C   0  0  0  0  0  0  0  0  0  0  0  0
  1  2  1  0  0  0  0
  3  2  1  0  0  0  0
  3  4  1  0  0  0  0
  5  4  1  1  0  0  0
  5  6  1  0  0  0  0
  2  6  1  0  0  0  0
  5  7  1  0  0  0  0
  7  8  1  0  0  0  0
  4  8  1  0  0  0  0
  8  9  2  0  0  0  0
  7 10  1  1  0  0  0
 10 11  1  0  0  0  0
 11 12  2  0  0  0  0
 11 13  1  0  0  0  0
 13 14  1  0  0  0  0
 14 15  2  0  0  0  0
 15 16  1  0  0  0  0
 16 17  2  0  0  0  0
 17 18  1  0  0  0  0
 18 19  2  0  0  0  0
 14 19  1  0  0  0  0
 13 20  1  0  0  0  0
 20 21  2  0  0  0  0
 20 22  1  0  0  0  0
  3 23  1  6  0  0  0
 23 24  2  0  0  0  0
 23 25  1  0  0  0  0
  2 26  1  0  0  0  0
M  END
> <Molar mass [g/mol] [MProp:scalar:double]>
378.4

> <Exact mass [Da] [MProp:scalar:double]>
378.088557482

> <Formula>
C17H18N2O6S

> <Composition>
C (53.96%), H (4.79%), N (7.40%), O (25.37%), S (8.47%)

> <Lipinski's rule of five [MProp:scalar:boolean]>
true

> <Atom count [MProp:scalar:integer]>
44

> <Heavy atom count [MProp:scalar:integer]>
26

> <Asymmetric atom count [MProp:scalar:integer]>
4

> <Rotatable bond count [MProp:scalar:integer]>
5

> <Ring count [MProp:scalar:integer]>
3

> <Aromatic ring count [MProp:scalar:integer]>
1

> <Hetero ring count [MProp:scalar:integer]>
2

> <FSP3 [MProp:scalar:double]>
0.41

> <Hydrogen bond donor count [MProp:scalar:integer]>
3

> <Hydrogen bond acceptor count [MProp:scalar:integer]>
6

> <Formal charge [MProp:scalar:integer]>
0

> <Topological polar surface area [A^2] [MProp:scalar:double]>
124.01

> <Polarizability [A^3] [MProp:scalar:double]>
35.8

> <Molar refractivity [cm^3/mol] [MProp:scalar:double]>
90.82

> <Van der Waals volume [A^3] [MProp:scalar:double]>
314.48

> <Minimum projection area [A^2] [MProp:scalar:double]>
51.15

> <Maximum projection area [A^2] [MProp:scalar:double]>
89.9

> <Minimum projection radius [A] [MProp:scalar:double]>
4.84

> <Maximum projection radius [A] [MProp:scalar:double]>
7.77

> <Van der Waals surface area [A^2] [MProp:scalar:double]>
485.85

> <Solvent accessible surface area [A^2] [MProp:scalar:double]>
495.1

> <Strongest acidic pKa [MProp:scalar:double]>
3.29

> <Strongest basic pKa [MProp:scalar:double]>
2.66

> <Isoelectric point [MProp:scalar:double]>
2.84

> <Intrinsic solubility [logS] [MProp:scalar:double]>
-4.51

> <Solubility category>
Moderate

> <logP [MProp:scalar:double]>
0.29

> <logD_PH0 [MProp:scalar:double]>
-3.68

> <logD_PH1 [MProp:scalar:double]>
-1.92

> <logD_PH2 [MProp:scalar:double]>
-0.34

> <logD_PH3 [MProp:scalar:double]>
0.29

> <logD_PH4 [MProp:scalar:double]>
-0.48

> <logD_PH5 [MProp:scalar:double]>
-2.2

> <logD_PH6 [MProp:scalar:double]>
-4.09

> <logD_PH7 [MProp:scalar:double]>
-5.56

> <logD_PH8 [MProp:scalar:double]>
-6.14

> <logD_PH9 [MProp:scalar:double]>
-6.23

> <logD_PH10 [MProp:scalar:double]>
-6.25

> <logD_PH11 [MProp:scalar:double]>
-6.28

> <logD_PH12 [MProp:scalar:double]>
-6.51

> <logD_PH13 [MProp:scalar:double]>
-6.98

> <logD_PH14 [MProp:scalar:double]>
-7.28

> <HLB [MProp:scalar:double]>
21.24

> <IUPAC name>
(2S,5R,6R)-6-(2-carboxy-2-phenylacetamido)-3,3-dimethyl-7-oxo-4-thia-1-azabicyclo[3.2.0]heptane-2-carboxylic acid

> <SMILES>
CC1(C)S[C@@H]2[C@H](NC(=O)C(C(O)=O)C3=CC=CC=C3)C(=O)N2[C@H]1C(O)=O

> <InChI>
InChI=1S/C17H18N2O6S/c1-17(2)11(16(24)25)19-13(21)10(14(19)26-17)18-12(20)9(15(22)23)8-6-4-3-5-7-8/h3-7,9-11,14H,1-2H3,(H,18,20)(H,22,23)(H,24,25)/t9?,10-,11+,14-/m1/s1

> <InChIKey>
FPPNZSSZRUTDAP-UWFZAAFLSA-N

> <Traditional name>
carbenicillin

> <Common names>
CBPC; anabactyl; carbapen; carbenicilina; carbenicillin; carbenicillin (product); carbenicillin (substance); carbenicillin disodium (substance); carbenicillin disodium preparation; carbenicillin preparation; carbenicilline; carbenicillinum; carboxybenzyl penicillin; carboxybenzylpenicillin; csl brand of carbenicillin disodium salt; disodium, carbenicillin; penicillin, carboxybenzyl; sanfer brand of carbenicillin disodium salt; α-carboxybenzylpencillin

> <CAS Registry Numbers(R)>
4697-36-3

$$$$
Mezlocillin
  Mrv2222 01232613222D          

 36 39  0  0  1  0            999 V2000
   -2.3895    2.1766    0.0000 C   0  0  0  0  0  0  0  0  0  0  0  0
   -1.9402    2.8685    0.0000 C   0  0  0  0  0  0  0  0  0  0  0  0
   -1.6445    3.6387    0.0000 C   0  0  1  0  0  0  0  0  0  0  0  0
   -0.8207    3.5955    0.0000 N   0  0  0  0  0  0  0  0  0  0  0  0
   -0.6071    2.7986    0.0000 C   0  0  2  0  0  0  0  0  0  0  0  0
   -1.2990    2.3493    0.0000 S   0  0  0  0  0  0  0  0  0  0  0  0
    0.1898    3.0121    0.0000 C   0  0  1  0  0  0  0  0  0  0  0  0
   -0.0238    3.8090    0.0000 C   0  0  0  0  0  0  0  0  0  0  0  0
    0.3887    4.5235    0.0000 O   0  0  0  0  0  0  0  0  0  0  0  0
    0.9042    2.5996    0.0000 N   0  0  0  0  0  0  0  0  0  0  0  0
    1.6187    3.0121    0.0000 C   0  0  0  0  0  0  0  0  0  0  0  0
    1.6187    3.8371    0.0000 O   0  0  0  0  0  0  0  0  0  0  0  0
    2.3332    2.5996    0.0000 C   0  0  1  0  0  0  0  0  0  0  0  0
    2.3332    1.7746    0.0000 C   0  0  0  0  0  0  0  0  0  0  0  0
    3.0476    1.3621    0.0000 C   0  0  0  0  0  0  0  0  0  0  0  0
    3.0476    0.5371    0.0000 C   0  0  0  0  0  0  0  0  0  0  0  0
    2.3332    0.1246    0.0000 C   0  0  0  0  0  0  0  0  0  0  0  0
    1.6187    0.5371    0.0000 C   0  0  0  0  0  0  0  0  0  0  0  0
    1.6187    1.3621    0.0000 C   0  0  0  0  0  0  0  0  0  0  0  0
    3.0476    3.0121    0.0000 N   0  0  0  0  0  0  0  0  0  0  0  0
    3.7621    2.5996    0.0000 C   0  0  0  0  0  0  0  0  0  0  0  0
    3.7621    1.7746    0.0000 O   0  0  0  0  0  0  0  0  0  0  0  0
    4.4766    3.0121    0.0000 N   0  0  0  0  0  0  0  0  0  0  0  0
    4.5628    3.8326    0.0000 C   0  0  0  0  0  0  0  0  0  0  0  0
    5.3698    4.0041    0.0000 C   0  0  0  0  0  0  0  0  0  0  0  0
    5.7823    3.2897    0.0000 N   0  0  0  0  0  0  0  0  0  0  0  0
    5.2303    2.6766    0.0000 C   0  0  0  0  0  0  0  0  0  0  0  0
    5.4018    1.8696    0.0000 O   0  0  0  0  0  0  0  0  0  0  0  0
    6.6028    3.2034    0.0000 S   0  0  0  0  0  0  0  0  0  0  0  0
    7.4232    3.1172    0.0000 O   0  0  0  0  0  0  0  0  0  0  0  0
    6.6890    4.0239    0.0000 O   0  0  0  0  0  0  0  0  0  0  0  0
    6.5165    2.3830    0.0000 C   0  0  0  0  0  0  0  0  0  0  0  0
   -2.0939    4.3306    0.0000 C   0  0  0  0  0  0  0  0  0  0  0  0
   -2.9177    4.2874    0.0000 O   0  0  0  0  0  0  0  0  0  0  0  0
   -1.7193    5.0657    0.0000 O   0  0  0  0  0  0  0  0  0  0  0  0
   -2.6753    3.2430    0.0000 C   0  0  0  0  0  0  0  0  0  0  0  0
  1  2  1  0  0  0  0
  3  2  1  0  0  0  0
  3  4  1  0  0  0  0
  5  4  1  1  0  0  0
  5  6  1  0  0  0  0
  2  6  1  0  0  0  0
  5  7  1  0  0  0  0
  7  8  1  0  0  0  0
  4  8  1  0  0  0  0
  8  9  2  0  0  0  0
  7 10  1  1  0  0  0
 10 11  1  0  0  0  0
 11 12  2  0  0  0  0
 13 11  1  0  0  0  0
 13 14  1  0  0  0  0
 14 15  2  0  0  0  0
 15 16  1  0  0  0  0
 16 17  2  0  0  0  0
 17 18  1  0  0  0  0
 18 19  2  0  0  0  0
 14 19  1  0  0  0  0
 13 20  1  6  0  0  0
 20 21  1  0  0  0  0
 21 22  2  0  0  0  0
 21 23  1  0  0  0  0
 23 24  1  0  0  0  0
 24 25  1  0  0  0  0
 25 26  1  0  0  0  0
 26 27  1  0  0  0  0
 23 27  1  0  0  0  0
 27 28  2  0  0  0  0
 26 29  1  0  0  0  0
 29 30  2  0  0  0  0
 29 31  2  0  0  0  0
 29 32  1  0  0  0  0
  3 33  1  6  0  0  0
 33 34  2  0  0  0  0
 33 35  1  0  0  0  0
  2 36  1  0  0  0  0
M  END
> <Molar mass [g/mol] [MProp:scalar:double]>
539.58

> <Exact mass [Da] [MProp:scalar:double]>
539.114455133

> <Formula>
C21H25N5O8S2

> <Composition>
C (46.75%), H (4.67%), N (12.98%), O (23.72%), S (11.88%)

> <Lipinski's rule of five [MProp:scalar:boolean]>
false

> <Atom count [MProp:scalar:integer]>
61

> <Heavy atom count [MProp:scalar:integer]>
36

> <Asymmetric atom count [MProp:scalar:integer]>
4

> <Rotatable bond count [MProp:scalar:integer]>
5

> <Ring count [MProp:scalar:integer]>
4

> <Aromatic ring count [MProp:scalar:integer]>
1

> <Hetero ring count [MProp:scalar:integer]>
3

> <FSP3 [MProp:scalar:double]>
0.48

> <Hydrogen bond donor count [MProp:scalar:integer]>
3

> <Hydrogen bond acceptor count [MProp:scalar:integer]>
8

> <Formal charge [MProp:scalar:integer]>
0

> <Topological polar surface area [A^2] [MProp:scalar:double]>
173.5

> <Polarizability [A^3] [MProp:scalar:double]>
49.82

> <Molar refractivity [cm^3/mol] [MProp:scalar:double]>
124.88

> <Van der Waals volume [A^3] [MProp:scalar:double]>
436.43

> <Minimum projection area [A^2] [MProp:scalar:double]>
80.07

> <Maximum projection area [A^2] [MProp:scalar:double]>
128.26

> <Minimum projection radius [A] [MProp:scalar:double]>
7.46

> <Maximum projection radius [A] [MProp:scalar:double]>
8.5

> <Van der Waals surface area [A^2] [MProp:scalar:double]>
693.36

> <Solvent accessible surface area [A^2] [MProp:scalar:double]>
715.89

> <Strongest acidic pKa [MProp:scalar:double]>
3.6

> <Strongest basic pKa [MProp:scalar:double]>
2.75

> <Isoelectric point [MProp:scalar:double]>
3.14

> <Intrinsic solubility [logS] [MProp:scalar:double]>
-5.51

> <Solubility category>
Low

> <logP [MProp:scalar:double]>
-1.22

> <logD_PH0 [MProp:scalar:double]>
-5.73

> <logD_PH1 [MProp:scalar:double]>
-3.64

> <logD_PH2 [MProp:scalar:double]>
-1.98

> <logD_PH3 [MProp:scalar:double]>
-1.22

> <logD_PH4 [MProp:scalar:double]>
-1.51

> <logD_PH5 [MProp:scalar:double]>
-2.37

> <logD_PH6 [MProp:scalar:double]>
-3.32

> <logD_PH7 [MProp:scalar:double]>
-4.06

> <logD_PH8 [MProp:scalar:double]>
-4.33

> <logD_PH9 [MProp:scalar:double]>
-4.37

> <logD_PH10 [MProp:scalar:double]>
-4.39

> <logD_PH11 [MProp:scalar:double]>
-4.51

> <logD_PH12 [MProp:scalar:double]>
-5.08

> <logD_PH13 [MProp:scalar:double]>
-6.05

> <logD_PH14 [MProp:scalar:double]>
-6.98

> <HLB [MProp:scalar:double]>
25.71

> <IUPAC name>
(2S,5R,6R)-6-[(2R)-2-[(3-methanesulfonyl-2-oxoimidazolidine-1-carbonyl)amino]-2-phenylacetamido]-3,3-dimethyl-7-oxo-4-thia-1-azabicyclo[3.2.0]heptane-2-carboxylic acid

> <SMILES>
CC1(C)S[C@@H]2[C@H](NC(=O)[C@H](NC(=O)N3CCN(C3=O)S(C)(=O)=O)C3=CC=CC=C3)C(=O)N2[C@H]1C(O)=O

> <InChI>
InChI=1S/C21H25N5O8S2/c1-21(2)14(18(29)30)26-16(28)13(17(26)35-21)22-15(27)12(11-7-5-4-6-8-11)23-19(31)24-9-10-25(20(24)32)36(3,33)34/h4-8,12-14,17H,9-10H2,1-3H3,(H,22,27)(H,23,31)(H,29,30)/t12-,13-,14+,17-/m1/s1

> <InChIKey>
YPBATNHYBCGSSN-VWPFQQQWSA-N

> <Traditional name>
mezlocillin

> <Common names>
mezlin; mezlocilina; mezlocillin; mezlocilline; mezlocillinum

> <CAS Registry Numbers(R)>
51481-65-3, 59798-30-0

$$$$
Ticarcillin
  Mrv2222 01232613222D          

 25 27  0  0  1  0            999 V2000
   -0.8256   -0.5974    0.0000 C   0  0  0  0  0  0  0  0  0  0  0  0
   -1.2001    0.1376    0.0000 C   0  0  0  0  0  0  0  0  0  0  0  0
   -1.7193    0.7788    0.0000 C   0  0  1  0  0  0  0  0  0  0  0  0
   -1.2700    1.4707    0.0000 N   0  0  0  0  0  0  0  0  0  0  0  0
   -0.4731    1.2572    0.0000 C   0  0  2  0  0  0  0  0  0  0  0  0
   -0.4299    0.4333    0.0000 S   0  0  0  0  0  0  0  0  0  0  0  0
   -0.2596    2.0540    0.0000 C   0  0  1  0  0  0  0  0  0  0  0  0
   -1.0565    2.2676    0.0000 C   0  0  0  0  0  0  0  0  0  0  0  0
   -1.4690    2.9820    0.0000 O   0  0  0  0  0  0  0  0  0  0  0  0
    0.4549    2.4665    0.0000 N   0  0  0  0  0  0  0  0  0  0  0  0
    0.4549    3.2915    0.0000 C   0  0  0  0  0  0  0  0  0  0  0  0
   -0.2596    3.7040    0.0000 O   0  0  0  0  0  0  0  0  0  0  0  0
    1.1694    3.7040    0.0000 C   0  0  1  0  0  0  0  0  0  0  0  0
    1.1694    4.5290    0.0000 C   0  0  0  0  0  0  0  0  0  0  0  0
    0.5019    5.0140    0.0000 C   0  0  0  0  0  0  0  0  0  0  0  0
    0.7569    5.7986    0.0000 S   0  0  0  0  0  0  0  0  0  0  0  0
    1.5819    5.7986    0.0000 C   0  0  0  0  0  0  0  0  0  0  0  0
    1.8368    5.0140    0.0000 C   0  0  0  0  0  0  0  0  0  0  0  0
    1.8838    3.2915    0.0000 C   0  0  0  0  0  0  0  0  0  0  0  0
    2.5983    3.7040    0.0000 O   0  0  0  0  0  0  0  0  0  0  0  0
    1.8838    2.4665    0.0000 O   0  0  0  0  0  0  0  0  0  0  0  0
   -2.5432    0.7356    0.0000 C   0  0  0  0  0  0  0  0  0  0  0  0
   -2.9177    0.0005    0.0000 O   0  0  0  0  0  0  0  0  0  0  0  0
   -2.9925    1.4275    0.0000 O   0  0  0  0  0  0  0  0  0  0  0  0
   -1.8920   -0.3117    0.0000 C   0  0  0  0  0  0  0  0  0  0  0  0
  1  2  1  0  0  0  0
  3  2  1  0  0  0  0
  3  4  1  0  0  0  0
  5  4  1  1  0  0  0
  5  6  1  0  0  0  0
  2  6  1  0  0  0  0
  5  7  1  0  0  0  0
  7  8  1  0  0  0  0
  4  8  1  0  0  0  0
  8  9  2  0  0  0  0
  7 10  1  1  0  0  0
 10 11  1  0  0  0  0
 11 12  2  0  0  0  0
 13 11  1  1  0  0  0
 13 14  1  0  0  0  0
 14 15  2  0  0  0  0
 15 16  1  0  0  0  0
 16 17  1  0  0  0  0
 17 18  2  0  0  0  0
 14 18  1  0  0  0  0
 13 19  1  0  0  0  0
 19 20  2  0  0  0  0
 19 21  1  0  0  0  0
  3 22  1  6  0  0  0
 22 23  2  0  0  0  0
 22 24  1  0  0  0  0
  2 25  1  0  0  0  0
M  END
> <Molar mass [g/mol] [MProp:scalar:double]>
384.42

> <Exact mass [Da] [MProp:scalar:double]>
384.044978591

> <Formula>
C15H16N2O6S2

> <Composition>
C (46.87%), H (4.20%), N (7.29%), O (24.97%), S (16.68%)

> <Lipinski's rule of five [MProp:scalar:boolean]>
true

> <Atom count [MProp:scalar:integer]>
41

> <Heavy atom count [MProp:scalar:integer]>
25

> <Asymmetric atom count [MProp:scalar:integer]>
4

> <Rotatable bond count [MProp:scalar:integer]>
5

> <Ring count [MProp:scalar:integer]>
3

> <Aromatic ring count [MProp:scalar:integer]>
1

> <Hetero ring count [MProp:scalar:integer]>
3

> <FSP3 [MProp:scalar:double]>
0.47

> <Hydrogen bond donor count [MProp:scalar:integer]>
3

> <Hydrogen bond acceptor count [MProp:scalar:integer]>
6

> <Formal charge [MProp:scalar:integer]>
0

> <Topological polar surface area [A^2] [MProp:scalar:double]>
124.01

> <Polarizability [A^3] [MProp:scalar:double]>
34.58

> <Molar refractivity [cm^3/mol] [MProp:scalar:double]>
87.93

> <Van der Waals volume [A^3] [MProp:scalar:double]>
305.93

> <Minimum projection area [A^2] [MProp:scalar:double]>
48.91

> <Maximum projection area [A^2] [MProp:scalar:double]>
82.7

> <Minimum projection radius [A] [MProp:scalar:double]>
4.62

> <Maximum projection radius [A] [MProp:scalar:double]>
7.79

> <Van der Waals surface area [A^2] [MProp:scalar:double]>
463.93

> <Solvent accessible surface area [A^2] [MProp:scalar:double]>
461.67

> <Strongest acidic pKa [MProp:scalar:double]>
3.33

> <Strongest basic pKa [MProp:scalar:double]>
2.65

> <Isoelectric point [MProp:scalar:double]>
2.9

> <Intrinsic solubility [logS] [MProp:scalar:double]>
-4.18

> <Solubility category>
Moderate

> <logP [MProp:scalar:double]>
0.08

> <logD_PH0 [MProp:scalar:double]>
-3.9

> <logD_PH1 [MProp:scalar:double]>
-2.14

> <logD_PH2 [MProp:scalar:double]>
-0.56

> <logD_PH3 [MProp:scalar:double]>
0.08

> <logD_PH4 [MProp:scalar:double]>
-0.51

> <logD_PH5 [MProp:scalar:double]>
-2.0

> <logD_PH6 [MProp:scalar:double]>
-3.84

> <logD_PH7 [MProp:scalar:double]>
-5.37

> <logD_PH8 [MProp:scalar:double]>
-6.2

> <logD_PH9 [MProp:scalar:double]>
-6.43

> <logD_PH10 [MProp:scalar:double]>
-6.47

> <logD_PH11 [MProp:scalar:double]>
-6.52

> <logD_PH12 [MProp:scalar:double]>
-6.81

> <logD_PH13 [MProp:scalar:double]>
-7.26

> <logD_PH14 [MProp:scalar:double]>
-7.51

> <HLB [MProp:scalar:double]>
22.15

> <IUPAC name>
(2S,5R,6R)-6-[(2R)-2-carboxy-2-(thiophen-3-yl)acetamido]-3,3-dimethyl-7-oxo-4-thia-1-azabicyclo[3.2.0]heptane-2-carboxylic acid

> <SMILES>
CC1(C)S[C@@H]2[C@H](NC(=O)[C@H](C(O)=O)C3=CSC=C3)C(=O)N2[C@H]1C(O)=O

> <InChI>
InChI=1S/C15H16N2O6S2/c1-15(2)9(14(22)23)17-11(19)8(12(17)25-15)16-10(18)7(13(20)21)6-3-4-24-5-6/h3-5,7-9,12H,1-2H3,(H,16,18)(H,20,21)(H,22,23)/t7-,8-,9+,12-/m1/s1

> <InChIKey>
OHKOGUYZJXTSFX-KZFFXBSXSA-N

> <Traditional name>
ticarcillin

> <Common names>
csl brand of ticarcillin disodium; disodium, ticarcillin; glaxosmithkline brand of ticarcillin disodium; glaxosmithkline brand of ticarcillin disodium salt; smithkline beecham brand of ticarcillin disodium; tarcil; ticarcilina; ticarcilina [inn-spanish]; ticarcillin; ticarcillin (product); ticarcillin (substance); ticarcillin disodium (substance); ticarcillin disodium preparation; ticarcillin preparation; ticarcillin supplement; ticarcilline; ticarcilline [inn-french]; ticarcillinum; ticillin; ticillin (product)

> <CAS Registry Numbers(R)>
34787-01-4

$$$$
Azlocillin
  Mrv2222 01232613222D          

 32 35  0  0  1  0            999 V2000
   -2.3895    2.1766    0.0000 C   0  0  0  0  0  0  0  0  0  0  0  0
   -1.9402    2.8685    0.0000 C   0  0  0  0  0  0  0  0  0  0  0  0
   -1.6445    3.6387    0.0000 C   0  0  1  0  0  0  0  0  0  0  0  0
   -0.8207    3.5955    0.0000 N   0  0  0  0  0  0  0  0  0  0  0  0
   -0.6071    2.7986    0.0000 C   0  0  2  0  0  0  0  0  0  0  0  0
   -1.2990    2.3493    0.0000 S   0  0  0  0  0  0  0  0  0  0  0  0
    0.1898    3.0121    0.0000 C   0  0  1  0  0  0  0  0  0  0  0  0
   -0.0238    3.8090    0.0000 C   0  0  0  0  0  0  0  0  0  0  0  0
    0.3887    4.5235    0.0000 O   0  0  0  0  0  0  0  0  0  0  0  0
    0.9042    2.5996    0.0000 N   0  0  0  0  0  0  0  0  0  0  0  0
    1.6187    3.0121    0.0000 C   0  0  0  0  0  0  0  0  0  0  0  0
    1.6187    3.8371    0.0000 O   0  0  0  0  0  0  0  0  0  0  0  0
    2.3332    2.5996    0.0000 C   0  0  1  0  0  0  0  0  0  0  0  0
    2.3332    1.7746    0.0000 C   0  0  0  0  0  0  0  0  0  0  0  0
    3.0476    1.3621    0.0000 C   0  0  0  0  0  0  0  0  0  0  0  0
    3.0476    0.5371    0.0000 C   0  0  0  0  0  0  0  0  0  0  0  0
    2.3332    0.1246    0.0000 C   0  0  0  0  0  0  0  0  0  0  0  0
    1.6187    0.5371    0.0000 C   0  0  0  0  0  0  0  0  0  0  0  0
    1.6187    1.3621    0.0000 C   0  0  0  0  0  0  0  0  0  0  0  0
    3.0476    3.0121    0.0000 N   0  0  0  0  0  0  0  0  0  0  0  0
    3.7621    2.5996    0.0000 C   0  0  0  0  0  0  0  0  0  0  0  0
    3.7621    1.7746    0.0000 O   0  0  0  0  0  0  0  0  0  0  0  0
    4.4766    3.0121    0.0000 N   0  0  0  0  0  0  0  0  0  0  0  0
    4.5628    3.8326    0.0000 C   0  0  0  0  0  0  0  0  0  0  0  0
    5.3698    4.0041    0.0000 C   0  0  0  0  0  0  0  0  0  0  0  0
    5.7823    3.2897    0.0000 N   0  0  0  0  0  0  0  0  0  0  0  0
    5.2303    2.6766    0.0000 C   0  0  0  0  0  0  0  0  0  0  0  0
    5.4018    1.8696    0.0000 O   0  0  0  0  0  0  0  0  0  0  0  0
   -2.0939    4.3306    0.0000 C   0  0  0  0  0  0  0  0  0  0  0  0
   -2.9177    4.2874    0.0000 O   0  0  0  0  0  0  0  0  0  0  0  0
   -1.7193    5.0657    0.0000 O   0  0  0  0  0  0  0  0  0  0  0  0
   -2.6753    3.2430    0.0000 C   0  0  0  0  0  0  0  0  0  0  0  0
  1  2  1  0  0  0  0
  3  2  1  0  0  0  0
  3  4  1  0  0  0  0
  5  4  1  1  0  0  0
  5  6  1  0  0  0  0
  2  6  1  0  0  0  0
  5  7  1  0  0  0  0
  7  8  1  0  0  0  0
  4  8  1  0  0  0  0
  8  9  2  0  0  0  0
  7 10  1  1  0  0  0
 10 11  1  0  0  0  0
 11 12  2  0  0  0  0
 13 11  1  0  0  0  0
 13 14  1  0  0  0  0
 14 15  2  0  0  0  0
 15 16  1  0  0  0  0
 16 17  2  0  0  0  0
 17 18  1  0  0  0  0
 18 19  2  0  0  0  0
 14 19  1  0  0  0  0
 13 20  1  6  0  0  0
 20 21  1  0  0  0  0
 21 22  2  0  0  0  0
 21 23  1  0  0  0  0
 23 24  1  0  0  0  0
 24 25  1  0  0  0  0
 25 26  1  0  0  0  0
 26 27  1  0  0  0  0
 23 27  1  0  0  0  0
 27 28  2  0  0  0  0
  3 29  1  6  0  0  0
 29 30  2  0  0  0  0
 29 31  1  0  0  0  0
  2 32  1  0  0  0  0
M  END
> <Molar mass [g/mol] [MProp:scalar:double]>
461.49

> <Exact mass [Da] [MProp:scalar:double]>
461.136904655

> <Formula>
C20H23N5O6S

> <Composition>
C (52.05%), H (5.02%), N (15.18%), O (20.80%), S (6.95%)

> <Lipinski's rule of five [MProp:scalar:boolean]>
true

> <Atom count [MProp:scalar:integer]>
55

> <Heavy atom count [MProp:scalar:integer]>
32

> <Asymmetric atom count [MProp:scalar:integer]>
4

> <Rotatable bond count [MProp:scalar:integer]>
5

> <Ring count [MProp:scalar:integer]>
4

> <Aromatic ring count [MProp:scalar:integer]>
1

> <Hetero ring count [MProp:scalar:integer]>
3

> <FSP3 [MProp:scalar:double]>
0.45

> <Hydrogen bond donor count [MProp:scalar:integer]>
4

> <Hydrogen bond acceptor count [MProp:scalar:integer]>
6

> <Formal charge [MProp:scalar:integer]>
0

> <Topological polar surface area [A^2] [MProp:scalar:double]>
148.15

> <Polarizability [A^3] [MProp:scalar:double]>
43.69

> <Molar refractivity [cm^3/mol] [MProp:scalar:double]>
111.71

> <Van der Waals volume [A^3] [MProp:scalar:double]>
382.81

> <Minimum projection area [A^2] [MProp:scalar:double]>
67.29

> <Maximum projection area [A^2] [MProp:scalar:double]>
108.5

> <Minimum projection radius [A] [MProp:scalar:double]>
6.22

> <Maximum projection radius [A] [MProp:scalar:double]>
7.84

> <Van der Waals surface area [A^2] [MProp:scalar:double]>
598.27

> <Solvent accessible surface area [A^2] [MProp:scalar:double]>
622.29

> <Strongest acidic pKa [MProp:scalar:double]>
3.49

> <Strongest basic pKa [MProp:scalar:double]>
2.7

> <Isoelectric point [MProp:scalar:double]>
3.14

> <Intrinsic solubility [logS] [MProp:scalar:double]>
-5.43

> <Solubility category>
Low

> <logP [MProp:scalar:double]>
-0.71

> <logD_PH0 [MProp:scalar:double]>
-5.35

> <logD_PH1 [MProp:scalar:double]>
-3.15

> <logD_PH2 [MProp:scalar:double]>
-1.47

> <logD_PH3 [MProp:scalar:double]>
-0.71

> <logD_PH4 [MProp:scalar:double]>
-0.99

> <logD_PH5 [MProp:scalar:double]>
-1.85

> <logD_PH6 [MProp:scalar:double]>
-2.8

> <logD_PH7 [MProp:scalar:double]>
-3.55

> <logD_PH8 [MProp:scalar:double]>
-3.81

> <logD_PH9 [MProp:scalar:double]>
-3.85

> <logD_PH10 [MProp:scalar:double]>
-3.86

> <logD_PH11 [MProp:scalar:double]>
-3.94

> <logD_PH12 [MProp:scalar:double]>
-4.39

> <logD_PH13 [MProp:scalar:double]>
-5.37

> <logD_PH14 [MProp:scalar:double]>
-6.56

> <HLB [MProp:scalar:double]>
25.73

> <IUPAC name>
(2S,5R,6R)-3,3-dimethyl-7-oxo-6-[(2R)-2-[(2-oxoimidazolidine-1-carbonyl)amino]-2-phenylacetamido]-4-thia-1-azabicyclo[3.2.0]heptane-2-carboxylic acid

> <SMILES>
CC1(C)S[C@@H]2[C@H](NC(=O)[C@H](NC(=O)N3CCNC3=O)C3=CC=CC=C3)C(=O)N2[C@H]1C(O)=O

> <InChI>
InChI=1S/C20H23N5O6S/c1-20(2)13(17(28)29)25-15(27)12(16(25)32-20)22-14(26)11(10-6-4-3-5-7-10)23-19(31)24-9-8-21-18(24)30/h3-7,11-13,16H,8-9H2,1-2H3,(H,21,30)(H,22,26)(H,23,31)(H,28,29)/t11-,12-,13+,16-/m1/s1

> <InChIKey>
JTWOMNBEOCYFNV-NFFDBFGFSA-N

> <Traditional name>
azlocillin

> <Common names>
azlocilina; azlocilina [inn-spanish]; azlocillin; azlocillin sodium salt; azlocilline; azlocilline [inn-french]; azlocillinum; 阿洛西林

> <CAS Registry Numbers(R)>
37091-66-0

$$$$
Piperacillin
  Mrv2222 01232613222D          

 36 39  0  0  1  0            999 V2000
   -2.8177   -3.3911    0.0000 C   0  0  0  0  0  0  0  0  0  0  0  0
   -2.1032   -2.9786    0.0000 C   0  0  0  0  0  0  0  0  0  0  0  0
   -1.3888   -3.3911    0.0000 N   0  0  0  0  0  0  0  0  0  0  0  0
   -0.6743   -2.9786    0.0000 C   0  0  0  0  0  0  0  0  0  0  0  0
    0.0402   -3.3911    0.0000 C   0  0  0  0  0  0  0  0  0  0  0  0
    0.0402   -4.2161    0.0000 N   0  0  0  0  0  0  0  0  0  0  0  0
   -0.6743   -4.6286    0.0000 C   0  0  0  0  0  0  0  0  0  0  0  0
   -0.6743   -5.4536    0.0000 O   0  0  0  0  0  0  0  0  0  0  0  0
   -1.3888   -4.2161    0.0000 C   0  0  0  0  0  0  0  0  0  0  0  0
   -2.1032   -4.6286    0.0000 O   0  0  0  0  0  0  0  0  0  0  0  0
    0.7547   -4.6286    0.0000 C   0  0  0  0  0  0  0  0  0  0  0  0
    0.7547   -5.4536    0.0000 O   0  0  0  0  0  0  0  0  0  0  0  0
    1.4691   -4.2161    0.0000 N   0  0  0  0  0  0  0  0  0  0  0  0
    2.1836   -4.6286    0.0000 C   0  0  2  0  0  0  0  0  0  0  0  0
    2.1836   -5.4536    0.0000 C   0  0  0  0  0  0  0  0  0  0  0  0
    2.8981   -5.8661    0.0000 C   0  0  0  0  0  0  0  0  0  0  0  0
    2.8981   -6.6911    0.0000 C   0  0  0  0  0  0  0  0  0  0  0  0
    2.1836   -7.1036    0.0000 C   0  0  0  0  0  0  0  0  0  0  0  0
    1.4691   -6.6911    0.0000 C   0  0  0  0  0  0  0  0  0  0  0  0
    1.4691   -5.8661    0.0000 C   0  0  0  0  0  0  0  0  0  0  0  0
    2.8981   -4.2161    0.0000 C   0  0  0  0  0  0  0  0  0  0  0  0
    2.8981   -3.3911    0.0000 O   0  0  0  0  0  0  0  0  0  0  0  0
    3.6125   -4.6286    0.0000 N   0  0  0  0  0  0  0  0  0  0  0  0
    4.3270   -4.2161    0.0000 C   0  0  1  0  0  0  0  0  0  0  0  0
    5.1239   -4.4296    0.0000 C   0  0  2  0  0  0  0  0  0  0  0  0
    5.3374   -3.6327    0.0000 N   0  0  0  0  0  0  0  0  0  0  0  0
    4.5405   -3.4192    0.0000 C   0  0  0  0  0  0  0  0  0  0  0  0
    4.1280   -2.7047    0.0000 O   0  0  0  0  0  0  0  0  0  0  0  0
    6.1613   -3.5896    0.0000 C   0  0  2  0  0  0  0  0  0  0  0  0
    6.4569   -4.3598    0.0000 C   0  0  0  0  0  0  0  0  0  0  0  0
    5.8158   -4.8790    0.0000 S   0  0  0  0  0  0  0  0  0  0  0  0
    7.2560   -4.1546    0.0000 C   0  0  0  0  0  0  0  0  0  0  0  0
    7.0464   -4.9370    0.0000 C   0  0  0  0  0  0  0  0  0  0  0  0
    6.6106   -2.8977    0.0000 C   0  0  0  0  0  0  0  0  0  0  0  0
    7.4345   -2.9408    0.0000 O   0  0  0  0  0  0  0  0  0  0  0  0
    6.2361   -2.1626    0.0000 O   0  0  0  0  0  0  0  0  0  0  0  0
  1  2  1  0  0  0  0
  2  3  1  0  0  0  0
  3  4  1  0  0  0  0
  4  5  1  0  0  0  0
  5  6  1  0  0  0  0
  6  7  1  0  0  0  0
  7  8  2  0  0  0  0
  7  9  1  0  0  0  0
  3  9  1  0  0  0  0
  9 10  2  0  0  0  0
  6 11  1  0  0  0  0
 11 12  2  0  0  0  0
 11 13  1  0  0  0  0
 14 13  1  1  0  0  0
 14 15  1  0  0  0  0
 15 16  2  0  0  0  0
 16 17  1  0  0  0  0
 17 18  2  0  0  0  0
 18 19  1  0  0  0  0
 19 20  2  0  0  0  0
 15 20  1  0  0  0  0
 14 21  1  0  0  0  0
 21 22  2  0  0  0  0
 21 23  1  0  0  0  0
 24 23  1  6  0  0  0
 24 25  1  0  0  0  0
 25 26  1  6  0  0  0
 26 27  1  0  0  0  0
 24 27  1  0  0  0  0
 27 28  2  0  0  0  0
 29 26  1  0  0  0  0
 29 30  1  0  0  0  0
 30 31  1  0  0  0  0
 25 31  1  0  0  0  0
 30 32  1  0  0  0  0
 30 33  1  0  0  0  0
 29 34  1  1  0  0  0
 34 35  2  0  0  0  0
 34 36  1  0  0  0  0
M  END
> <Molar mass [g/mol] [MProp:scalar:double]>
517.56

> <Exact mass [Da] [MProp:scalar:double]>
517.163119403

> <Formula>
C23H27N5O7S

> <Composition>
C (53.38%), H (5.26%), N (13.53%), O (21.64%), S (6.19%)

> <Lipinski's rule of five [MProp:scalar:boolean]>
false

> <Atom count [MProp:scalar:integer]>
63

> <Heavy atom count [MProp:scalar:integer]>
36

> <Asymmetric atom count [MProp:scalar:integer]>
4

> <Rotatable bond count [MProp:scalar:integer]>
6

> <Ring count [MProp:scalar:integer]>
4

> <Aromatic ring count [MProp:scalar:integer]>
1

> <Hetero ring count [MProp:scalar:integer]>
3

> <FSP3 [MProp:scalar:double]>
0.48

> <Hydrogen bond donor count [MProp:scalar:integer]>
3

> <Hydrogen bond acceptor count [MProp:scalar:integer]>
7

> <Formal charge [MProp:scalar:integer]>
0

> <Topological polar surface area [A^2] [MProp:scalar:double]>
156.43

> <Polarizability [A^3] [MProp:scalar:double]>
49.3

> <Molar refractivity [cm^3/mol] [MProp:scalar:double]>
126.3

> <Van der Waals volume [A^3] [MProp:scalar:double]>
437.65

> <Minimum projection area [A^2] [MProp:scalar:double]>
74.7

> <Maximum projection area [A^2] [MProp:scalar:double]>
118.71

> <Minimum projection radius [A] [MProp:scalar:double]>
6.4

> <Maximum projection radius [A] [MProp:scalar:double]>
8.44

> <Van der Waals surface area [A^2] [MProp:scalar:double]>
687.93

> <Solvent accessible surface area [A^2] [MProp:scalar:double]>
698.49

> <Strongest acidic pKa [MProp:scalar:double]>
3.49

> <Strongest basic pKa [MProp:scalar:double]>
2.7

> <Isoelectric point [MProp:scalar:double]>
3.18

> <Intrinsic solubility [logS] [MProp:scalar:double]>
-6.11

> <Solubility category>
Low

> <logP [MProp:scalar:double]>
-0.66

> <logD_PH0 [MProp:scalar:double]>
-6.69

> <logD_PH1 [MProp:scalar:double]>
-3.74

> <logD_PH2 [MProp:scalar:double]>
-1.54

> <logD_PH3 [MProp:scalar:double]>
-0.66

> <logD_PH4 [MProp:scalar:double]>
-0.93

> <logD_PH5 [MProp:scalar:double]>
-1.79

> <logD_PH6 [MProp:scalar:double]>
-2.74

> <logD_PH7 [MProp:scalar:double]>
-3.48

> <logD_PH8 [MProp:scalar:double]>
-3.75

> <logD_PH9 [MProp:scalar:double]>
-3.78

> <logD_PH10 [MProp:scalar:double]>
-3.8

> <logD_PH11 [MProp:scalar:double]>
-3.88

> <logD_PH12 [MProp:scalar:double]>
-4.34

> <logD_PH13 [MProp:scalar:double]>
-5.23

> <logD_PH14 [MProp:scalar:double]>
-6.11

> <HLB [MProp:scalar:double]>
30.77

> <IUPAC name>
(2S,5R,6R)-6-[(2R)-2-[(4-ethyl-2,3-dioxopiperazine-1-carbonyl)amino]-2-phenylacetamido]-3,3-dimethyl-7-oxo-4-thia-1-azabicyclo[3.2.0]heptane-2-carboxylic acid

> <SMILES>
CCN1CCN(C(=O)N[C@@H](C(=O)N[C@H]2[C@H]3SC(C)(C)[C@@H](N3C2=O)C(O)=O)C2=CC=CC=C2)C(=O)C1=O

> <InChI>
InChI=1S/C23H27N5O7S/c1-4-26-10-11-27(19(32)18(26)31)22(35)25-13(12-8-6-5-7-9-12)16(29)24-14-17(30)28-15(21(33)34)23(2,3)36-20(14)28/h5-9,13-15,20H,4,10-11H2,1-3H3,(H,24,29)(H,25,35)(H,33,34)/t13-,14-,15+,20-/m1/s1

> <InChIKey>
IVBHGBMCVLDMKU-GXNBUGAJSA-N

> <Traditional name>
piperacillin

> <Common names>
pentcillin; piperacillin; piperacillin anhydrous; piperacillin hydrate

> <CAS Registry Numbers(R)>
61477-96-1

$$$$
Sulfabenzamide
  Mrv2222 01232613222D          

 19 20  0  0  0  0            999 V2000
    1.4289   -4.9500    0.0000 C   0  0  0  0  0  0  0  0  0  0  0  0
    0.7145   -4.5375    0.0000 C   0  0  0  0  0  0  0  0  0  0  0  0
    0.7145   -3.7125    0.0000 C   0  0  0  0  0  0  0  0  0  0  0  0
    1.4289   -3.3000    0.0000 C   0  0  0  0  0  0  0  0  0  0  0  0
    2.1434   -3.7125    0.0000 C   0  0  0  0  0  0  0  0  0  0  0  0
    2.1434   -4.5375    0.0000 C   0  0  0  0  0  0  0  0  0  0  0  0
    1.4289   -2.4750    0.0000 C   0  0  0  0  0  0  0  0  0  0  0  0
    2.1434   -2.0625    0.0000 O   0  0  0  0  0  0  0  0  0  0  0  0
    0.7145   -2.0625    0.0000 N   0  0  0  0  0  0  0  0  0  0  0  0
    0.7145   -1.2375    0.0000 S   0  0  0  0  0  0  0  0  0  0  0  0
    1.5395   -1.2375    0.0000 O   0  0  0  0  0  0  0  0  0  0  0  0
   -0.1105   -1.2375    0.0000 O   0  0  0  0  0  0  0  0  0  0  0  0
    0.7145   -0.4125    0.0000 C   0  0  0  0  0  0  0  0  0  0  0  0
    0.0000    0.0000    0.0000 C   0  0  0  0  0  0  0  0  0  0  0  0
    0.0000    0.8250    0.0000 C   0  0  0  0  0  0  0  0  0  0  0  0
    0.7145    1.2375    0.0000 C   0  0  0  0  0  0  0  0  0  0  0  0
    1.4289    0.8250    0.0000 C   0  0  0  0  0  0  0  0  0  0  0  0
    1.4289    0.0000    0.0000 C   0  0  0  0  0  0  0  0  0  0  0  0
    0.7145    2.0625    0.0000 N   0  0  0  0  0  0  0  0  0  0  0  0
  1  2  2  0  0  0  0
  2  3  1  0  0  0  0
  3  4  2  0  0  0  0
  4  5  1  0  0  0  0
  5  6  2  0  0  0  0
  1  6  1  0  0  0  0
  4  7  1  0  0  0  0
  7  8  2  0  0  0  0
  7  9  1  0  0  0  0
  9 10  1  0  0  0  0
 10 11  2  0  0  0  0
 10 12  2  0  0  0  0
 10 13  1  0  0  0  0
 13 14  2  0  0  0  0
 14 15  1  0  0  0  0
 15 16  2  0  0  0  0
 16 17  1  0  0  0  0
 17 18  2  0  0  0  0
 13 18  1  0  0  0  0
 16 19  1  0  0  0  0
M  END
> <Molar mass [g/mol] [MProp:scalar:double]>
276.31

> <Exact mass [Da] [MProp:scalar:double]>
276.056863428

> <Formula>
C13H12N2O3S

> <Composition>
C (56.51%), H (4.38%), N (10.14%), O (17.37%), S (11.60%)

> <Lipinski's rule of five [MProp:scalar:boolean]>
true

> <Atom count [MProp:scalar:integer]>
31

> <Heavy atom count [MProp:scalar:integer]>
19

> <Asymmetric atom count [MProp:scalar:integer]>
0

> <Rotatable bond count [MProp:scalar:integer]>
2

> <Ring count [MProp:scalar:integer]>
2

> <Aromatic ring count [MProp:scalar:integer]>
2

> <Hetero ring count [MProp:scalar:integer]>
0

> <FSP3 [MProp:scalar:double]>
0.0

> <Hydrogen bond donor count [MProp:scalar:integer]>
2

> <Hydrogen bond acceptor count [MProp:scalar:integer]>
4

> <Formal charge [MProp:scalar:integer]>
0

> <Topological polar surface area [A^2] [MProp:scalar:double]>
89.26

> <Polarizability [A^3] [MProp:scalar:double]>
28.04

> <Molar refractivity [cm^3/mol] [MProp:scalar:double]>
73.15

> <Van der Waals volume [A^3] [MProp:scalar:double]>
230.46

> <Minimum projection area [A^2] [MProp:scalar:double]>
37.83

> <Maximum projection area [A^2] [MProp:scalar:double]>
83.7

> <Minimum projection radius [A] [MProp:scalar:double]>
4.71

> <Maximum projection radius [A] [MProp:scalar:double]>
7.71

> <Van der Waals surface area [A^2] [MProp:scalar:double]>
366.35

> <Solvent accessible surface area [A^2] [MProp:scalar:double]>
470.9

> <Strongest acidic pKa [MProp:scalar:double]>
4.32

> <Strongest basic pKa [MProp:scalar:double]>
2.09

> <Isoelectric point [MProp:scalar:double]>
3.2

> <Intrinsic solubility [logS] [MProp:scalar:double]>
-3.45

> <Solubility category>
High

> <logP [MProp:scalar:double]>
1.59

> <logD_PH0 [MProp:scalar:double]>
-0.27

> <logD_PH1 [MProp:scalar:double]>
0.5

> <logD_PH2 [MProp:scalar:double]>
1.25

> <logD_PH3 [MProp:scalar:double]>
1.53

> <logD_PH4 [MProp:scalar:double]>
1.44

> <logD_PH5 [MProp:scalar:double]>
1.02

> <logD_PH6 [MProp:scalar:double]>
0.71

> <logD_PH7 [MProp:scalar:double]>
0.66

> <logD_PH8 [MProp:scalar:double]>
0.65

> <logD_PH9 [MProp:scalar:double]>
0.65

> <logD_PH10 [MProp:scalar:double]>
0.65

> <logD_PH11 [MProp:scalar:double]>
0.65

> <logD_PH12 [MProp:scalar:double]>
0.65

> <logD_PH13 [MProp:scalar:double]>
0.65

> <logD_PH14 [MProp:scalar:double]>
0.65

> <HLB [MProp:scalar:double]>
12.08

> <IUPAC name>
N-(4-aminobenzenesulfonyl)benzamide

> <SMILES>
NC1=CC=C(C=C1)S(=O)(=O)NC(=O)C1=CC=CC=C1

> <InChI>
InChI=1S/C13H12N2O3S/c14-11-6-8-12(9-7-11)19(17,18)15-13(16)10-4-2-1-3-5-10/h1-9H,14H2,(H,15,16)

> <InChIKey>
PBCZLFBEBARBBI-UHFFFAOYSA-N

> <Traditional name>
sulfabenzamide

> <Common names>
sulfabenzamide; 磺胺苯酰

> <CAS Registry Numbers(R)>
127-71-9

$$$$
Sulfacetamide
  Mrv2222 01232613222D          

 14 14  0  0  0  0            999 V2000
    0.0000    4.1250    0.0000 C   0  0  0  0  0  0  0  0  0  0  0  0
    0.0000    3.3000    0.0000 C   0  0  0  0  0  0  0  0  0  0  0  0
   -0.7145    2.8875    0.0000 O   0  0  0  0  0  0  0  0  0  0  0  0
    0.7145    2.8875    0.0000 N   0  0  0  0  0  0  0  0  0  0  0  0
    0.7145    2.0625    0.0000 S   0  0  0  0  0  0  0  0  0  0  0  0
   -0.1105    2.0625    0.0000 O   0  0  0  0  0  0  0  0  0  0  0  0
    1.5395    2.0625    0.0000 O   0  0  0  0  0  0  0  0  0  0  0  0
    0.7145    1.2375    0.0000 C   0  0  0  0  0  0  0  0  0  0  0  0
    1.4289    0.8250    0.0000 C   0  0  0  0  0  0  0  0  0  0  0  0
    1.4289    0.0000    0.0000 C   0  0  0  0  0  0  0  0  0  0  0  0
    0.7145   -0.4125    0.0000 C   0  0  0  0  0  0  0  0  0  0  0  0
    0.0000    0.0000    0.0000 C   0  0  0  0  0  0  0  0  0  0  0  0
    0.0000    0.8250    0.0000 C   0  0  0  0  0  0  0  0  0  0  0  0
    0.7145   -1.2375    0.0000 N   0  0  0  0  0  0  0  0  0  0  0  0
  1  2  1  0  0  0  0
  2  3  2  0  0  0  0
  2  4  1  0  0  0  0
  4  5  1  0  0  0  0
  5  6  2  0  0  0  0
  5  7  2  0  0  0  0
  5  8  1  0  0  0  0
  8  9  2  0  0  0  0
  9 10  1  0  0  0  0
 10 11  2  0  0  0  0
 11 12  1  0  0  0  0
 12 13  2  0  0  0  0
  8 13  1  0  0  0  0
 11 14  1  0  0  0  0
M  END
> <Molar mass [g/mol] [MProp:scalar:double]>
214.24

> <Exact mass [Da] [MProp:scalar:double]>
214.041213364

> <Formula>
C8H10N2O3S

> <Composition>
C (44.85%), H (4.71%), N (13.08%), O (22.40%), S (14.96%)

> <Lipinski's rule of five [MProp:scalar:boolean]>
true

> <Atom count [MProp:scalar:integer]>
24

> <Heavy atom count [MProp:scalar:integer]>
14

> <Asymmetric atom count [MProp:scalar:integer]>
0

> <Rotatable bond count [MProp:scalar:integer]>
1

> <Ring count [MProp:scalar:integer]>
1

> <Aromatic ring count [MProp:scalar:integer]>
1

> <Hetero ring count [MProp:scalar:integer]>
0

> <FSP3 [MProp:scalar:double]>
0.12

> <Hydrogen bond donor count [MProp:scalar:integer]>
2

> <Hydrogen bond acceptor count [MProp:scalar:integer]>
4

> <Formal charge [MProp:scalar:integer]>
0

> <Topological polar surface area [A^2] [MProp:scalar:double]>
89.26

> <Polarizability [A^3] [MProp:scalar:double]>
20.56

> <Molar refractivity [cm^3/mol] [MProp:scalar:double]>
52.48

> <Van der Waals volume [A^3] [MProp:scalar:double]>
176.55

> <Minimum projection area [A^2] [MProp:scalar:double]>
38.06

> <Maximum projection area [A^2] [MProp:scalar:double]>
57.38

> <Minimum projection radius [A] [MProp:scalar:double]>
4.24

> <Maximum projection radius [A] [MProp:scalar:double]>
5.79

> <Van der Waals surface area [A^2] [MProp:scalar:double]>
291.15

> <Solvent accessible surface area [A^2] [MProp:scalar:double]>
390.54

> <Strongest acidic pKa [MProp:scalar:double]>
5.6

> <Strongest basic pKa [MProp:scalar:double]>
2.14

> <Isoelectric point [MProp:scalar:double]>
3.87

> <Intrinsic solubility [logS] [MProp:scalar:double]>
-1.51

> <Solubility category>
High

> <logP [MProp:scalar:double]>
-0.26

> <logD_PH0 [MProp:scalar:double]>
-2.15

> <logD_PH1 [MProp:scalar:double]>
-1.4

> <logD_PH2 [MProp:scalar:double]>
-0.63

> <logD_PH3 [MProp:scalar:double]>
-0.32

> <logD_PH4 [MProp:scalar:double]>
-0.28

> <logD_PH5 [MProp:scalar:double]>
-0.35

> <logD_PH6 [MProp:scalar:double]>
-0.7

> <logD_PH7 [MProp:scalar:double]>
-1.09

> <logD_PH8 [MProp:scalar:double]>
-1.19

> <logD_PH9 [MProp:scalar:double]>
-1.2

> <logD_PH10 [MProp:scalar:double]>
-1.2

> <logD_PH11 [MProp:scalar:double]>
-1.2

> <logD_PH12 [MProp:scalar:double]>
-1.2

> <logD_PH13 [MProp:scalar:double]>
-1.2

> <logD_PH14 [MProp:scalar:double]>
-1.2

> <HLB [MProp:scalar:double]>
14.04

> <IUPAC name>
N-(4-aminobenzenesulfonyl)acetamide

> <SMILES>
CC(=O)NS(=O)(=O)C1=CC=C(N)C=C1

> <InChI>
InChI=1S/C8H10N2O3S/c1-6(11)10-14(12,13)8-4-2-7(9)3-5-8/h2-5H,9H2,1H3,(H,10,11)

> <InChIKey>
SKIVFJLNDNKQPD-UHFFFAOYSA-N

> <Traditional name>
sulfacetamide

> <Common names>
AK sulf; AK-sulf; I-sulfacet; N-acetylsulfanilamine; OP-sulfa 30; P-aminobenzenesulfonacetamide; P-aminobenzenesulfonoacetamide; acetocid; acetopt; acetosulfamine; ak-sulf; akorn brand of sulfacetamide sodium; albamine; albucid; alcon brand 1 of sulfacetamide sodium; alcon brand 2 of sulfacetamide sodium; alesten; allergan brand of sulfacetamide sodium; antébor; belph 10; belph-10; bleph; bleph-10; bleph-10 liquifilm; caswell no. 808A; ceta sulfa; cetamide, isopto; chauvin brand of sulfacetamide sodium; colircusi sulfacetamida; coliriocilina sulfacetam; epa pesticide chemical code 077904; formosulfacetamide; grin brand of sulfacetamide sodium; gyne-sulf; isopto cetamide; isopto-cetamide; klaron; medical brand of sulfacetamide sodium; monosodium salt, sulfacetamide; médix brand of sulfacetamide sodium; novartis brand of sulfacetamide sodium; oclucid; ocusulf-10; op-sulfa 30; ophthacet; ophthel-S; p-aminobenzenesulfonacetamide; p-aminobenzenesulfonoacetamide; pharmafair brand of sulfacetamide sodium; region; schering brand of sulfacetamide sodium; sebizon; sigma brand of sulfacetamide sodium; sodium sulamyd; solfacetamide; steramide; steri-units sulfacetamide; sulamyd; sulamyd, sodium; sulf 10; sulf-10; sulf-15; sulfacel-15; sulfacetam, coliriocilina; sulfacetamida; sulfacetamida, colircusi; sulfacetamide; sulfacetamide (product); sulfacetamide (substance); sulfacetamide preparation; sulfacetamide sodium (substance); sulfacetamide sodium preparation; sulfacetamide sodium usp; sulfacetamide, monosodium salt, anhydrous; sulfacetamidum; sulfacetimide; sulfacil; sulfacyl; sulfacylum; sulfair; sulfair 10; sulfair 15; sulfair forte; sulfair-15; sulfanilacetamide; sulfanilazetamid; sulfex; sulphacetamide; sulphacetamidum; sulphasil; sulten-10; sultrin; trysul; urosulfon; urosulfone; 磺胺醋酰

> <CAS Registry Numbers(R)>
144-80-9, 5414-91-5

$$$$
Sulfachlorpyridazine
  Mrv2222 01232613222D          

 18 19  0  0  0  0            999 V2000
    3.5724   -2.0625    0.0000 C    0  0  0  0  0  0  0  0  0  0  0  0
    3.5724   -2.8875    0.0000 C    0  0  0  0  0  0  0  0  0  0  0  0
    2.8579   -3.3000    0.0000 C    0  0  0  0  0  0  0  0  0  0  0  0
    2.1434   -2.8875    0.0000 C    0  0  0  0  0  0  0  0  0  0  0  0
    2.1434   -2.0625    0.0000 C    0  0  0  0  0  0  0  0  0  0  0  0
    2.8579   -1.6500    0.0000 C    0  0  0  0  0  0  0  0  0  0  0  0
    2.8579   -0.8250    0.0000 N    0  0  0  0  0  0  0  0  0  0  0  0
    2.8579   -4.1250    0.0000 S    0  0  0  0  0  0  0  0  0  0  0  0
    2.0329   -4.1250    0.0000 O    0  0  0  0  0  0  0  0  0  0  0  0
    3.6829   -4.1250    0.0000 O    0  0  0  0  0  0  0  0  0  0  0  0
    2.8579   -4.9500    0.0000 N    0  0  0  0  0  0  0  0  0  0  0  0
    2.1434   -5.3625    0.0000 C    0  0  0  0  0  0  0  0  0  0  0  0
    2.1434   -6.1875    0.0000 N    0  0  0  0  0  0  0  0  0  0  0  0
    1.4289   -6.6000    0.0000 N    0  0  0  0  0  0  0  0  0  0  0  0
    0.7145   -6.1875    0.0000 C    0  0  0  0  0  0  0  0  0  0  0  0
    0.7145   -5.3625    0.0000 C    0  0  0  0  0  0  0  0  0  0  0  0
    1.4289   -4.9500    0.0000 C    0  0  0  0  0  0  0  0  0  0  0  0
    0.0000   -6.6000    0.0000 Cl   0  0  0  0  0  0  0  0  0  0  0  0
  1  2  2  0  0  0  0
  2  3  1  0  0  0  0
  3  4  2  0  0  0  0
  4  5  1  0  0  0  0
  5  6  2  0  0  0  0
  1  6  1  0  0  0  0
  6  7  1  0  0  0  0
  3  8  1  0  0  0  0
  8  9  2  0  0  0  0
  8 10  2  0  0  0  0
  8 11  1  0  0  0  0
 11 12  1  0  0  0  0
 12 13  2  0  0  0  0
 13 14  1  0  0  0  0
 14 15  2  0  0  0  0
 15 16  1  0  0  0  0
 16 17  2  0  0  0  0
 12 17  1  0  0  0  0
 15 18  1  0  0  0  0
M  END
> <Molar mass [g/mol] [MProp:scalar:double]>
284.72

> <Exact mass [Da] [MProp:scalar:double]>
284.0134744

> <Formula>
C10H9ClN4O2S

> <Composition>
C (42.19%), H (3.19%), Cl (12.45%), N (19.68%), O (11.24%), S (11.26%)

> <Lipinski's rule of five [MProp:scalar:boolean]>
true

> <Atom count [MProp:scalar:integer]>
27

> <Heavy atom count [MProp:scalar:integer]>
18

> <Asymmetric atom count [MProp:scalar:integer]>
0

> <Rotatable bond count [MProp:scalar:integer]>
2

> <Ring count [MProp:scalar:integer]>
2

> <Aromatic ring count [MProp:scalar:integer]>
2

> <Hetero ring count [MProp:scalar:integer]>
1

> <FSP3 [MProp:scalar:double]>
0.0

> <Hydrogen bond donor count [MProp:scalar:integer]>
2

> <Hydrogen bond acceptor count [MProp:scalar:integer]>
5

> <Formal charge [MProp:scalar:integer]>
0

> <Topological polar surface area [A^2] [MProp:scalar:double]>
97.97

> <Polarizability [A^3] [MProp:scalar:double]>
26.59

> <Molar refractivity [cm^3/mol] [MProp:scalar:double]>
71.48

> <Van der Waals volume [A^3] [MProp:scalar:double]>
216.38

> <Minimum projection area [A^2] [MProp:scalar:double]>
46.84

> <Maximum projection area [A^2] [MProp:scalar:double]>
70.23

> <Minimum projection radius [A] [MProp:scalar:double]>
4.94

> <Maximum projection radius [A] [MProp:scalar:double]>
5.92

> <Van der Waals surface area [A^2] [MProp:scalar:double]>
341.57

> <Solvent accessible surface area [A^2] [MProp:scalar:double]>
445.83

> <Strongest acidic pKa [MProp:scalar:double]>
6.6

> <Strongest basic pKa [MProp:scalar:double]>
2.02

> <Isoelectric point [MProp:scalar:double]>
4.31

> <Intrinsic solubility [logS] [MProp:scalar:double]>
-3.79

> <Solubility category>
Moderate

> <logP [MProp:scalar:double]>
0.85

> <logD_PH0 [MProp:scalar:double]>
-0.97

> <logD_PH1 [MProp:scalar:double]>
-0.18

> <logD_PH2 [MProp:scalar:double]>
0.55

> <logD_PH3 [MProp:scalar:double]>
0.81

> <logD_PH4 [MProp:scalar:double]>
0.85

> <logD_PH5 [MProp:scalar:double]>
0.84

> <logD_PH6 [MProp:scalar:double]>
0.77

> <logD_PH7 [MProp:scalar:double]>
0.41

> <logD_PH8 [MProp:scalar:double]>
0.02

> <logD_PH9 [MProp:scalar:double]>
-0.08

> <logD_PH10 [MProp:scalar:double]>
-0.09

> <logD_PH11 [MProp:scalar:double]>
-0.09

> <logD_PH12 [MProp:scalar:double]>
-0.09

> <logD_PH13 [MProp:scalar:double]>
-0.09

> <logD_PH14 [MProp:scalar:double]>
-0.09

> <HLB [MProp:scalar:double]>
12.97

> <IUPAC name>
4-amino-N-(6-chloropyridazin-3-yl)benzene-1-sulfonamide

> <SMILES>
NC1=CC=C(C=C1)S(=O)(=O)NC1=NN=C(Cl)C=C1

> <InChI>
InChI=1S/C10H9ClN4O2S/c11-9-5-6-10(14-13-9)15-18(16,17)8-3-1-7(12)2-4-8/h1-6H,12H2,(H,14,15)

> <InChIKey>
XOXHILFPRYWFOD-UHFFFAOYSA-N

> <Traditional name>
sulfachloropyridazine

> <Common names>
C10H9clN4O2S; cluricol; durasulf; monosodium salt sulfachlorpyridazine; nefrosul; prinzone vet.; solfaclorpiridazina; sulfachloropyridazine; sulfachlorpyridazine; sulfachlorpyridazine (substance); sulfachlorpyridazine, monosodium salt; sulfachlorpyridazinum; sulfacloropiridazina; sulphachlorpyridazine; vetisulid; 磺胺氯达嗪

> <CAS Registry Numbers(R)>
80-32-0

$$$$
Sulfadiazine
  Mrv2222 01232613222D          

 17 18  0  0  0  0            999 V2000
    2.1434   -3.7125    0.0000 C   0  0  0  0  0  0  0  0  0  0  0  0
    1.4289   -3.3000    0.0000 C   0  0  0  0  0  0  0  0  0  0  0  0
    1.4289   -2.4750    0.0000 N   0  0  0  0  0  0  0  0  0  0  0  0
    2.1434   -2.0625    0.0000 C   0  0  0  0  0  0  0  0  0  0  0  0
    2.8579   -2.4750    0.0000 N   0  0  0  0  0  0  0  0  0  0  0  0
    2.8579   -3.3000    0.0000 C   0  0  0  0  0  0  0  0  0  0  0  0
    2.1434   -1.2375    0.0000 N   0  0  0  0  0  0  0  0  0  0  0  0
    2.8579   -0.8250    0.0000 S   0  0  0  0  0  0  0  0  0  0  0  0
    3.2704   -1.5395    0.0000 O   0  0  0  0  0  0  0  0  0  0  0  0
    2.4454   -0.1105    0.0000 O   0  0  0  0  0  0  0  0  0  0  0  0
    3.5724   -0.4125    0.0000 C   0  0  0  0  0  0  0  0  0  0  0  0
    3.5724    0.4125    0.0000 C   0  0  0  0  0  0  0  0  0  0  0  0
    4.2868    0.8250    0.0000 C   0  0  0  0  0  0  0  0  0  0  0  0
    5.0013    0.4125    0.0000 C   0  0  0  0  0  0  0  0  0  0  0  0
    5.0013   -0.4125    0.0000 C   0  0  0  0  0  0  0  0  0  0  0  0
    4.2868   -0.8250    0.0000 C   0  0  0  0  0  0  0  0  0  0  0  0
    5.7158    0.8250    0.0000 N   0  0  0  0  0  0  0  0  0  0  0  0
  1  2  2  0  0  0  0
  2  3  1  0  0  0  0
  3  4  2  0  0  0  0
  4  5  1  0  0  0  0
  5  6  2  0  0  0  0
  1  6  1  0  0  0  0
  4  7  1  0  0  0  0
  7  8  1  0  0  0  0
  8  9  2  0  0  0  0
  8 10  2  0  0  0  0
  8 11  1  0  0  0  0
 11 12  2  0  0  0  0
 12 13  1  0  0  0  0
 13 14  2  0  0  0  0
 14 15  1  0  0  0  0
 15 16  2  0  0  0  0
 11 16  1  0  0  0  0
 14 17  1  0  0  0  0
M  END
> <Molar mass [g/mol] [MProp:scalar:double]>
250.28

> <Exact mass [Da] [MProp:scalar:double]>
250.052446752

> <Formula>
C10H10N4O2S

> <Composition>
C (47.99%), H (4.03%), N (22.39%), O (12.79%), S (12.81%)

> <Lipinski's rule of five [MProp:scalar:boolean]>
true

> <Atom count [MProp:scalar:integer]>
27

> <Heavy atom count [MProp:scalar:integer]>
17

> <Asymmetric atom count [MProp:scalar:integer]>
0

> <Rotatable bond count [MProp:scalar:integer]>
2

> <Ring count [MProp:scalar:integer]>
2

> <Aromatic ring count [MProp:scalar:integer]>
2

> <Hetero ring count [MProp:scalar:integer]>
1

> <FSP3 [MProp:scalar:double]>
0.0

> <Hydrogen bond donor count [MProp:scalar:integer]>
2

> <Hydrogen bond acceptor count [MProp:scalar:integer]>
5

> <Formal charge [MProp:scalar:integer]>
0

> <Topological polar surface area [A^2] [MProp:scalar:double]>
97.97

> <Polarizability [A^3] [MProp:scalar:double]>
24.58

> <Molar refractivity [cm^3/mol] [MProp:scalar:double]>
64.2

> <Van der Waals volume [A^3] [MProp:scalar:double]>
202.71

> <Minimum projection area [A^2] [MProp:scalar:double]>
45.3

> <Maximum projection area [A^2] [MProp:scalar:double]>
63.08

> <Minimum projection radius [A] [MProp:scalar:double]>
5.19

> <Maximum projection radius [A] [MProp:scalar:double]>
5.68

> <Van der Waals surface area [A^2] [MProp:scalar:double]>
326.06

> <Solvent accessible surface area [A^2] [MProp:scalar:double]>
430.54

> <Strongest acidic pKa [MProp:scalar:double]>
6.99

> <Strongest basic pKa [MProp:scalar:double]>
2.01

> <Isoelectric point [MProp:scalar:double]>
4.5

> <Intrinsic solubility [logS] [MProp:scalar:double]>
-2.5

> <Solubility category>
High

> <logP [MProp:scalar:double]>
0.39

> <logD_PH0 [MProp:scalar:double]>
-1.43

> <logD_PH1 [MProp:scalar:double]>
-0.64

> <logD_PH2 [MProp:scalar:double]>
0.08

> <logD_PH3 [MProp:scalar:double]>
0.34

> <logD_PH4 [MProp:scalar:double]>
0.38

> <logD_PH5 [MProp:scalar:double]>
0.38

> <logD_PH6 [MProp:scalar:double]>
0.35

> <logD_PH7 [MProp:scalar:double]>
0.13

> <logD_PH8 [MProp:scalar:double]>
-0.33

> <logD_PH9 [MProp:scalar:double]>
-0.52

> <logD_PH10 [MProp:scalar:double]>
-0.55

> <logD_PH11 [MProp:scalar:double]>
-0.56

> <logD_PH12 [MProp:scalar:double]>
-0.56

> <logD_PH13 [MProp:scalar:double]>
-0.56

> <logD_PH14 [MProp:scalar:double]>
-0.56

> <HLB [MProp:scalar:double]>
14.08

> <IUPAC name>
4-amino-N-(pyrimidin-2-yl)benzene-1-sulfonamide

> <SMILES>
NC1=CC=C(C=C1)S(=O)(=O)NC1=NC=CC=N1

> <InChI>
InChI=1S/C10H10N4O2S/c11-8-2-4-9(5-3-8)17(15,16)14-10-12-6-1-7-13-10/h1-7H,11H2,(H,12,13,14)

> <InChIKey>
SEEPANYCNGTZFQ-UHFFFAOYSA-N

> <Traditional name>
sulfadiazine

> <Common names>
SDA; adiazin; adiazine; coco-diazine; cocodiazine; codiazine; cremodiazine; cremotres; debenal; deltazina; di-azo-mul; diazolone; diazovit; diazyl; eskadiazine; honey diazine; lantrisul; lipo-diazine; lipo-levazine; liquadiazine; metha-meridiazine; microsulfon; neazine; neotrizine; palatrize; pecta-diazine; pecta-diazine, suspension; piridisir; pirimal; pyrimal; quadetts; quadramoid; sanodiazine; solfadiazina; spofadrizine; sterazine; sulfa-triple; sulfa-triple #2; sulfacombin; sulfadiazene; sulfadiazin; sulfadiazina; sulfadiazine; sulfadiazine (substance); sulfadiazine preparation; sulfadiazine product; sulfadiazine product (product); sulfadiazine, silver; sulfadiazine, zinc; sulfadiazinum; sulfaloid; sulfanilamidopyrimidine; sulfapirimidin; sulfapyrimidin; sulfapyrimidine; sulfatryl; sulfazine; sulfolex; sulfonamides duplex; sulfonsol; sulfose; sulphadiazine; sulphadiazine E; sulphadiazine product; suspension pecta-diazine; terfonyl; theradiazine; thi-di-mer; tri-sulfameth; trifonamide; triple sulfa; triple sulfas; triple sulfoid; trisem; truozine; zinc sulfadiazine; 磺胺嘧啶

> <CAS Registry Numbers(R)>
68-35-9

$$$$
Sulfadimethoxine
  Mrv2222 01232613222D          

 21 22  0  0  0  0            999 V2000
    2.8579   -0.8250    0.0000 C   0  0  0  0  0  0  0  0  0  0  0  0
    2.1434   -1.2375    0.0000 O   0  0  0  0  0  0  0  0  0  0  0  0
    2.1434   -2.0625    0.0000 C   0  0  0  0  0  0  0  0  0  0  0  0
    2.8579   -2.4750    0.0000 N   0  0  0  0  0  0  0  0  0  0  0  0
    2.8579   -3.3000    0.0000 C   0  0  0  0  0  0  0  0  0  0  0  0
    2.1434   -3.7125    0.0000 N   0  0  0  0  0  0  0  0  0  0  0  0
    1.4289   -3.3000    0.0000 C   0  0  0  0  0  0  0  0  0  0  0  0
    1.4289   -2.4750    0.0000 C   0  0  0  0  0  0  0  0  0  0  0  0
    0.7145   -3.7125    0.0000 N   0  0  0  0  0  0  0  0  0  0  0  0
    0.0000   -3.3000    0.0000 S   0  0  0  0  0  0  0  0  0  0  0  0
    0.4125   -2.5855    0.0000 O   0  0  0  0  0  0  0  0  0  0  0  0
   -0.4125   -4.0145    0.0000 O   0  0  0  0  0  0  0  0  0  0  0  0
   -0.7145   -2.8875    0.0000 C   0  0  0  0  0  0  0  0  0  0  0  0
   -1.4289   -3.3000    0.0000 C   0  0  0  0  0  0  0  0  0  0  0  0
   -2.1434   -2.8875    0.0000 C   0  0  0  0  0  0  0  0  0  0  0  0
   -2.1434   -2.0625    0.0000 C   0  0  0  0  0  0  0  0  0  0  0  0
   -1.4289   -1.6500    0.0000 C   0  0  0  0  0  0  0  0  0  0  0  0
   -0.7145   -2.0625    0.0000 C   0  0  0  0  0  0  0  0  0  0  0  0
   -2.8579   -1.6500    0.0000 N   0  0  0  0  0  0  0  0  0  0  0  0
    3.5724   -3.7125    0.0000 O   0  0  0  0  0  0  0  0  0  0  0  0
    3.5724   -4.5375    0.0000 C   0  0  0  0  0  0  0  0  0  0  0  0
  1  2  1  0  0  0  0
  2  3  1  0  0  0  0
  3  4  2  0  0  0  0
  4  5  1  0  0  0  0
  5  6  2  0  0  0  0
  6  7  1  0  0  0  0
  7  8  2  0  0  0  0
  3  8  1  0  0  0  0
  7  9  1  0  0  0  0
  9 10  1  0  0  0  0
 10 11  2  0  0  0  0
 10 12  2  0  0  0  0
 10 13  1  0  0  0  0
 13 14  2  0  0  0  0
 14 15  1  0  0  0  0
 15 16  2  0  0  0  0
 16 17  1  0  0  0  0
 17 18  2  0  0  0  0
 13 18  1  0  0  0  0
 16 19  1  0  0  0  0
  5 20  1  0  0  0  0
 20 21  1  0  0  0  0
M  END
> <Molar mass [g/mol] [MProp:scalar:double]>
310.33

> <Exact mass [Da] [MProp:scalar:double]>
310.073576121

> <Formula>
C12H14N4O4S

> <Composition>
C (46.45%), H (4.55%), N (18.05%), O (20.62%), S (10.33%)

> <Lipinski's rule of five [MProp:scalar:boolean]>
true

> <Atom count [MProp:scalar:integer]>
35

> <Heavy atom count [MProp:scalar:integer]>
21

> <Asymmetric atom count [MProp:scalar:integer]>
0

> <Rotatable bond count [MProp:scalar:integer]>
4

> <Ring count [MProp:scalar:integer]>
2

> <Aromatic ring count [MProp:scalar:integer]>
2

> <Hetero ring count [MProp:scalar:integer]>
1

> <FSP3 [MProp:scalar:double]>
0.17

> <Hydrogen bond donor count [MProp:scalar:integer]>
2

> <Hydrogen bond acceptor count [MProp:scalar:integer]>
7

> <Formal charge [MProp:scalar:integer]>
0

> <Topological polar surface area [A^2] [MProp:scalar:double]>
116.43

> <Polarizability [A^3] [MProp:scalar:double]>
29.68

> <Molar refractivity [cm^3/mol] [MProp:scalar:double]>
77.75

> <Van der Waals volume [A^3] [MProp:scalar:double]>
254.84

> <Minimum projection area [A^2] [MProp:scalar:double]>
49.56

> <Maximum projection area [A^2] [MProp:scalar:double]>
80.98

> <Minimum projection radius [A] [MProp:scalar:double]>
5.07

> <Maximum projection radius [A] [MProp:scalar:double]>
7.59

> <Van der Waals surface area [A^2] [MProp:scalar:double]>
422.01

> <Solvent accessible surface area [A^2] [MProp:scalar:double]>
542.99

> <Strongest acidic pKa [MProp:scalar:double]>
6.91

> <Strongest basic pKa [MProp:scalar:double]>
1.95

> <Isoelectric point [MProp:scalar:double]>
4.43

> <Intrinsic solubility [logS] [MProp:scalar:double]>
-3.6

> <Solubility category>
High

> <logP [MProp:scalar:double]>
1.26

> <logD_PH0 [MProp:scalar:double]>
-0.53

> <logD_PH1 [MProp:scalar:double]>
0.29

> <logD_PH2 [MProp:scalar:double]>
0.99

> <logD_PH3 [MProp:scalar:double]>
1.22

> <logD_PH4 [MProp:scalar:double]>
1.26

> <logD_PH5 [MProp:scalar:double]>
1.26

> <logD_PH6 [MProp:scalar:double]>
1.22

> <logD_PH7 [MProp:scalar:double]>
0.97

> <logD_PH8 [MProp:scalar:double]>
0.52

> <logD_PH9 [MProp:scalar:double]>
0.34

> <logD_PH10 [MProp:scalar:double]>
0.32

> <logD_PH11 [MProp:scalar:double]>
0.32

> <logD_PH12 [MProp:scalar:double]>
0.32

> <logD_PH13 [MProp:scalar:double]>
0.32

> <logD_PH14 [MProp:scalar:double]>
0.32

> <HLB [MProp:scalar:double]>
15.47

> <IUPAC name>
4-amino-N-(2,6-dimethoxypyrimidin-4-yl)benzene-1-sulfonamide

> <SMILES>
COC1=NC(OC)=NC(NS(=O)(=O)C2=CC=C(N)C=C2)=C1

> <InChI>
InChI=1S/C12H14N4O4S/c1-19-11-7-10(14-12(15-11)20-2)16-21(17,18)9-5-3-8(13)4-6-9/h3-7H,13H2,1-2H3,(H,14,15,16)

> <InChIKey>
ZZORFUFYDOWNEF-UHFFFAOYSA-N

> <Traditional name>
sulfadimethoxine

> <Common names>
abcid; abcid (TN); agribon; agribon (TN); albon; arnosulfan; bactrovet; deposul; di-methox; diasulfa; diasulfyl; dimetazina; dimethoxysulfadiazine; dinosol; dorisul; fuxal; madribon; madrigid; madriqid; madroxin; madroxine; maxulvet; memcozine; metoxidon; neostrepal; omnibon; persulfen; radonin; redifal; roscosulf; scandisil; solfadimetossina; sudine; sulfadimethoxin; sulfadimethoxine; sulfadimethoxine (product); sulfadimethoxine (substance); sulfadimethoxinum; sulfadimethoxydiazine; sulfadimetossina; sulfadimetoxin; sulfadimetoxina; sulfastop; sulfoplan; sulphadimethoxine; sulxin; symbio; theracanzan; 磺胺地索辛

> <CAS Registry Numbers(R)>
122-11-2

$$$$
Sulfaguanidine
  Mrv2222 01232613222D          

 14 14  0  0  0  0            999 V2000
    1.4289    0.8250    0.0000 C   0  0  0  0  0  0  0  0  0  0  0  0
    1.4289    0.0000    0.0000 C   0  0  0  0  0  0  0  0  0  0  0  0
    0.7145   -0.4125    0.0000 C   0  0  0  0  0  0  0  0  0  0  0  0
    0.0000    0.0000    0.0000 C   0  0  0  0  0  0  0  0  0  0  0  0
    0.0000    0.8250    0.0000 C   0  0  0  0  0  0  0  0  0  0  0  0
    0.7145    1.2375    0.0000 C   0  0  0  0  0  0  0  0  0  0  0  0
    0.7145    2.0625    0.0000 N   0  0  0  0  0  0  0  0  0  0  0  0
    0.7145   -1.2375    0.0000 S   0  0  0  0  0  0  0  0  0  0  0  0
   -0.1105   -1.2375    0.0000 O   0  0  0  0  0  0  0  0  0  0  0  0
    1.5395   -1.2375    0.0000 O   0  0  0  0  0  0  0  0  0  0  0  0
    0.7145   -2.0625    0.0000 N   0  0  0  0  0  0  0  0  0  0  0  0
    0.0000   -2.4750    0.0000 C   0  0  0  0  0  0  0  0  0  0  0  0
    0.0000   -3.3000    0.0000 N   0  0  0  0  0  0  0  0  0  0  0  0
   -0.7145   -2.0625    0.0000 N   0  0  0  0  0  0  0  0  0  0  0  0
  1  2  2  0  0  0  0
  2  3  1  0  0  0  0
  3  4  2  0  0  0  0
  4  5  1  0  0  0  0
  5  6  2  0  0  0  0
  1  6  1  0  0  0  0
  6  7  1  0  0  0  0
  3  8  1  0  0  0  0
  8  9  2  0  0  0  0
  8 10  2  0  0  0  0
  8 11  1  0  0  0  0
 11 12  1  0  0  0  0
 12 13  2  0  0  0  0
 12 14  1  0  0  0  0
M  END
> <Molar mass [g/mol] [MProp:scalar:double]>
214.24

> <Exact mass [Da] [MProp:scalar:double]>
214.052446752

> <Formula>
C7H10N4O2S

> <Composition>
C (39.24%), H (4.70%), N (26.15%), O (14.94%), S (14.96%)

> <Lipinski's rule of five [MProp:scalar:boolean]>
true

> <Atom count [MProp:scalar:integer]>
24

> <Heavy atom count [MProp:scalar:integer]>
14

> <Asymmetric atom count [MProp:scalar:integer]>
0

> <Rotatable bond count [MProp:scalar:integer]>
1

> <Ring count [MProp:scalar:integer]>
1

> <Aromatic ring count [MProp:scalar:integer]>
1

> <Hetero ring count [MProp:scalar:integer]>
0

> <FSP3 [MProp:scalar:double]>
0.0

> <Hydrogen bond donor count [MProp:scalar:integer]>
4

> <Hydrogen bond acceptor count [MProp:scalar:integer]>
5

> <Formal charge [MProp:scalar:integer]>
0

> <Topological polar surface area [A^2] [MProp:scalar:double]>
122.06

> <Polarizability [A^3] [MProp:scalar:double]>
20.52

> <Molar refractivity [cm^3/mol] [MProp:scalar:double]>
63.75

> <Van der Waals volume [A^3] [MProp:scalar:double]>
173.17

> <Minimum projection area [A^2] [MProp:scalar:double]>
36.27

> <Maximum projection area [A^2] [MProp:scalar:double]>
58.57

> <Minimum projection radius [A] [MProp:scalar:double]>
4.08

> <Maximum projection radius [A] [MProp:scalar:double]>
5.78

> <Van der Waals surface area [A^2] [MProp:scalar:double]>
276.5

> <Solvent accessible surface area [A^2] [MProp:scalar:double]>
355.38

> <Strongest acidic pKa [MProp:scalar:double]>
10.53

> <Strongest basic pKa [MProp:scalar:double]>
7.72

> <Isoelectric point [MProp:scalar:double]>
9.13

> <Intrinsic solubility [logS] [MProp:scalar:double]>
-1.63

> <Solubility category>
High

> <logP [MProp:scalar:double]>
-0.52

> <logD_PH0 [MProp:scalar:double]>
-4.82

> <logD_PH1 [MProp:scalar:double]>
-4.05

> <logD_PH2 [MProp:scalar:double]>
-3.3

> <logD_PH3 [MProp:scalar:double]>
-2.99

> <logD_PH4 [MProp:scalar:double]>
-2.92

> <logD_PH5 [MProp:scalar:double]>
-2.77

> <logD_PH6 [MProp:scalar:double]>
-2.17

> <logD_PH7 [MProp:scalar:double]>
-1.31

> <logD_PH8 [MProp:scalar:double]>
-0.71

> <logD_PH9 [MProp:scalar:double]>
-0.56

> <logD_PH10 [MProp:scalar:double]>
-0.62

> <logD_PH11 [MProp:scalar:double]>
-0.99

> <logD_PH12 [MProp:scalar:double]>
-1.37

> <logD_PH13 [MProp:scalar:double]>
-1.46

> <logD_PH14 [MProp:scalar:double]>
-1.46

> <HLB [MProp:scalar:double]>
20.53

> <IUPAC name>
N-(4-aminobenzenesulfonyl)guanidine

> <SMILES>
NC(=N)NS(=O)(=O)C1=CC=C(N)C=C1

> <InChI>
InChI=1S/C7H10N4O2S/c8-5-1-3-6(4-2-5)14(12,13)11-7(9)10/h1-4H,8H2,(H4,9,10,11)

> <InChIKey>
BRBKOPJOKNSWSG-UHFFFAOYSA-N

> <Traditional name>
aterian

> <Common names>
N(sup 1)-guanylsulfanilamide; N-guanylsulfanilamide; S-guanidine; abiguanil; aterian; diacta; emerin (pharmaceutical); ganidan; gastro entericanis biocanina; gastro-entericanis biocanina; gastroentericanis biocanina; guamide; guanicil; guanidan; orgaguanidon; p-aminobenzenesulfoguanidide; resulfon; ruocid; shigatox; solfaguanidina; suganyl; sulfaguanidin; sulfaguanidina; sulfaguanidine (product); sulfaguanidine (substance); sulfaguanidinum; sulfaguanil; sulfaguine; sulfanilyl guanadine; sulfentidine; sulfoguanil; sulfoguanyl; sulfoquanidine; sulgin; sulginum; sulphaguanidine; veto centre; veto-centre

> <CAS Registry Numbers(R)>
57-67-0, 61116-95-8, 6190-55-2

$$$$
Sulfamerazine
  Mrv2222 01232613222D          

 18 19  0  0  0  0            999 V2000
    2.1434   -1.2375    0.0000 C   0  0  0  0  0  0  0  0  0  0  0  0
    2.1434   -2.0625    0.0000 C   0  0  0  0  0  0  0  0  0  0  0  0
    2.8579   -2.4750    0.0000 N   0  0  0  0  0  0  0  0  0  0  0  0
    2.8579   -3.3000    0.0000 C   0  0  0  0  0  0  0  0  0  0  0  0
    2.1434   -3.7125    0.0000 N   0  0  0  0  0  0  0  0  0  0  0  0
    1.4289   -3.3000    0.0000 C   0  0  0  0  0  0  0  0  0  0  0  0
    1.4289   -2.4750    0.0000 C   0  0  0  0  0  0  0  0  0  0  0  0
    3.5724   -3.7125    0.0000 N   0  0  0  0  0  0  0  0  0  0  0  0
    3.5724   -4.5375    0.0000 S   0  0  0  0  0  0  0  0  0  0  0  0
    2.7474   -4.5375    0.0000 O   0  0  0  0  0  0  0  0  0  0  0  0
    4.3974   -4.5375    0.0000 O   0  0  0  0  0  0  0  0  0  0  0  0
    3.5724   -5.3625    0.0000 C   0  0  0  0  0  0  0  0  0  0  0  0
    4.2868   -5.7750    0.0000 C   0  0  0  0  0  0  0  0  0  0  0  0
    4.2868   -6.6000    0.0000 C   0  0  0  0  0  0  0  0  0  0  0  0
    3.5724   -7.0125    0.0000 C   0  0  0  0  0  0  0  0  0  0  0  0
    2.8579   -6.6000    0.0000 C   0  0  0  0  0  0  0  0  0  0  0  0
    2.8579   -5.7750    0.0000 C   0  0  0  0  0  0  0  0  0  0  0  0
    3.5724   -7.8375    0.0000 N   0  0  0  0  0  0  0  0  0  0  0  0
  1  2  1  0  0  0  0
  2  3  2  0  0  0  0
  3  4  1  0  0  0  0
  4  5  2  0  0  0  0
  5  6  1  0  0  0  0
  6  7  2  0  0  0  0
  2  7  1  0  0  0  0
  4  8  1  0  0  0  0
  8  9  1  0  0  0  0
  9 10  2  0  0  0  0
  9 11  2  0  0  0  0
  9 12  1  0  0  0  0
 12 13  2  0  0  0  0
 13 14  1  0  0  0  0
 14 15  2  0  0  0  0
 15 16  1  0  0  0  0
 16 17  2  0  0  0  0
 12 17  1  0  0  0  0
 15 18  1  0  0  0  0
M  END
> <Molar mass [g/mol] [MProp:scalar:double]>
264.3

> <Exact mass [Da] [MProp:scalar:double]>
264.068096816

> <Formula>
C11H12N4O2S

> <Composition>
C (49.99%), H (4.58%), N (21.20%), O (12.11%), S (12.13%)

> <Lipinski's rule of five [MProp:scalar:boolean]>
true

> <Atom count [MProp:scalar:integer]>
30

> <Heavy atom count [MProp:scalar:integer]>
18

> <Asymmetric atom count [MProp:scalar:integer]>
0

> <Rotatable bond count [MProp:scalar:integer]>
2

> <Ring count [MProp:scalar:integer]>
2

> <Aromatic ring count [MProp:scalar:integer]>
2

> <Hetero ring count [MProp:scalar:integer]>
1

> <FSP3 [MProp:scalar:double]>
0.09

> <Hydrogen bond donor count [MProp:scalar:integer]>
2

> <Hydrogen bond acceptor count [MProp:scalar:integer]>
5

> <Formal charge [MProp:scalar:integer]>
0

> <Topological polar surface area [A^2] [MProp:scalar:double]>
97.97

> <Polarizability [A^3] [MProp:scalar:double]>
26.33

> <Molar refractivity [cm^3/mol] [MProp:scalar:double]>
68.79

> <Van der Waals volume [A^3] [MProp:scalar:double]>
219.38

> <Minimum projection area [A^2] [MProp:scalar:double]>
48.07

> <Maximum projection area [A^2] [MProp:scalar:double]>
67.18

> <Minimum projection radius [A] [MProp:scalar:double]>
4.87

> <Maximum projection radius [A] [MProp:scalar:double]>
6.33

> <Van der Waals surface area [A^2] [MProp:scalar:double]>
358.22

> <Solvent accessible surface area [A^2] [MProp:scalar:double]>
470.83

> <Strongest acidic pKa [MProp:scalar:double]>
6.99

> <Strongest basic pKa [MProp:scalar:double]>
2.0

> <Isoelectric point [MProp:scalar:double]>
4.5

> <Intrinsic solubility [logS] [MProp:scalar:double]>
-2.66

> <Solubility category>
High

> <logP [MProp:scalar:double]>
0.52

> <logD_PH0 [MProp:scalar:double]>
-1.3

> <logD_PH1 [MProp:scalar:double]>
-0.5

> <logD_PH2 [MProp:scalar:double]>
0.22

> <logD_PH3 [MProp:scalar:double]>
0.48

> <logD_PH4 [MProp:scalar:double]>
0.51

> <logD_PH5 [MProp:scalar:double]>
0.51

> <logD_PH6 [MProp:scalar:double]>
0.48

> <logD_PH7 [MProp:scalar:double]>
0.26

> <logD_PH8 [MProp:scalar:double]>
-0.2

> <logD_PH9 [MProp:scalar:double]>
-0.39

> <logD_PH10 [MProp:scalar:double]>
-0.42

> <logD_PH11 [MProp:scalar:double]>
-0.42

> <logD_PH12 [MProp:scalar:double]>
-0.42

> <logD_PH13 [MProp:scalar:double]>
-0.42

> <logD_PH14 [MProp:scalar:double]>
-0.42

> <HLB [MProp:scalar:double]>
13.45

> <IUPAC name>
4-amino-N-(4-methylpyrimidin-2-yl)benzene-1-sulfonamide

> <SMILES>
CC1=NC(NS(=O)(=O)C2=CC=C(N)C=C2)=NC=C1

> <InChI>
InChI=1S/C11H12N4O2S/c1-8-6-7-13-11(14-8)15-18(16,17)10-4-2-9(12)3-5-10/h2-7H,12H2,1H3,(H,13,14,15)

> <InChIKey>
QPPBRPIAZZHUNT-UHFFFAOYSA-N

> <Traditional name>
sulfamerazine

> <Common names>
2-sulfa-4-methylpyrimidine; cremomerazine; debenal-M; kelamerazine; mebacid; mesulfa; methylpyrimal; methylsulfadiazine; methylsulfazin; methylsulfazine; metilsulfadiazin; metilsulfazin; percoccide; pirimal-M; pyralcid; pyrimal M; romezin; septacil; septosyl; solfamerazina; solumedin; sulfameradine; sulfamerazin; sulfamerazina; sulfamerazine; sulfamerazine (substance); sulfamerazine preparation; sulfamerazine sodium injection; sulfamerazine veyx brand; sulfamerazinum; sulfamethyldiazine; sulphamerazine; sumedine; trimetox; veta-merazine; veyx brand of sulfamerazine; 磺胺甲嘧啶

> <CAS Registry Numbers(R)>
127-79-7

$$$$
Sulfameter
  Mrv2222 01232613222D          

 19 20  0  0  0  0            999 V2000
    1.4289   -0.8250    0.0000 C   0  0  0  0  0  0  0  0  0  0  0  0
    2.1434   -1.2375    0.0000 O   0  0  0  0  0  0  0  0  0  0  0  0
    2.1434   -2.0625    0.0000 C   0  0  0  0  0  0  0  0  0  0  0  0
    2.8579   -2.4750    0.0000 C   0  0  0  0  0  0  0  0  0  0  0  0
    2.8579   -3.3000    0.0000 N   0  0  0  0  0  0  0  0  0  0  0  0
    2.1434   -3.7125    0.0000 C   0  0  0  0  0  0  0  0  0  0  0  0
    1.4289   -3.3000    0.0000 N   0  0  0  0  0  0  0  0  0  0  0  0
    1.4289   -2.4750    0.0000 C   0  0  0  0  0  0  0  0  0  0  0  0
    2.1434   -4.5375    0.0000 N   0  0  0  0  0  0  0  0  0  0  0  0
    1.4289   -4.9500    0.0000 S   0  0  0  0  0  0  0  0  0  0  0  0
    1.0164   -4.2355    0.0000 O   0  0  0  0  0  0  0  0  0  0  0  0
    1.8414   -5.6645    0.0000 O   0  0  0  0  0  0  0  0  0  0  0  0
    0.7145   -5.3625    0.0000 C   0  0  0  0  0  0  0  0  0  0  0  0
    0.7145   -6.1875    0.0000 C   0  0  0  0  0  0  0  0  0  0  0  0
    0.0000   -6.6000    0.0000 C   0  0  0  0  0  0  0  0  0  0  0  0
   -0.7145   -6.1875    0.0000 C   0  0  0  0  0  0  0  0  0  0  0  0
   -0.7145   -5.3625    0.0000 C   0  0  0  0  0  0  0  0  0  0  0  0
    0.0000   -4.9500    0.0000 C   0  0  0  0  0  0  0  0  0  0  0  0
   -1.4289   -6.6000    0.0000 N   0  0  0  0  0  0  0  0  0  0  0  0
  1  2  1  0  0  0  0
  2  3  1  0  0  0  0
  3  4  2  0  0  0  0
  4  5  1  0  0  0  0
  5  6  2  0  0  0  0
  6  7  1  0  0  0  0
  7  8  2  0  0  0  0
  3  8  1  0  0  0  0
  6  9  1  0  0  0  0
  9 10  1  0  0  0  0
 10 11  2  0  0  0  0
 10 12  2  0  0  0  0
 10 13  1  0  0  0  0
 13 14  2  0  0  0  0
 14 15  1  0  0  0  0
 15 16  2  0  0  0  0
 16 17  1  0  0  0  0
 17 18  2  0  0  0  0
 13 18  1  0  0  0  0
 16 19  1  0  0  0  0
M  END
> <Molar mass [g/mol] [MProp:scalar:double]>
280.3

> <Exact mass [Da] [MProp:scalar:double]>
280.063011436

> <Formula>
C11H12N4O3S

> <Composition>
C (47.14%), H (4.32%), N (19.99%), O (17.12%), S (11.44%)

> <Lipinski's rule of five [MProp:scalar:boolean]>
true

> <Atom count [MProp:scalar:integer]>
31

> <Heavy atom count [MProp:scalar:integer]>
19

> <Asymmetric atom count [MProp:scalar:integer]>
0

> <Rotatable bond count [MProp:scalar:integer]>
3

> <Ring count [MProp:scalar:integer]>
2

> <Aromatic ring count [MProp:scalar:integer]>
2

> <Hetero ring count [MProp:scalar:integer]>
1

> <FSP3 [MProp:scalar:double]>
0.09

> <Hydrogen bond donor count [MProp:scalar:integer]>
2

> <Hydrogen bond acceptor count [MProp:scalar:integer]>
6

> <Formal charge [MProp:scalar:integer]>
0

> <Topological polar surface area [A^2] [MProp:scalar:double]>
107.2

> <Polarizability [A^3] [MProp:scalar:double]>
27.13

> <Molar refractivity [cm^3/mol] [MProp:scalar:double]>
70.66

> <Van der Waals volume [A^3] [MProp:scalar:double]>
228.75

> <Minimum projection area [A^2] [MProp:scalar:double]>
49.65

> <Maximum projection area [A^2] [MProp:scalar:double]>
71.03

> <Minimum projection radius [A] [MProp:scalar:double]>
4.94

> <Maximum projection radius [A] [MProp:scalar:double]>
6.21

> <Van der Waals surface area [A^2] [MProp:scalar:double]>
374.69

> <Solvent accessible surface area [A^2] [MProp:scalar:double]>
496.43

> <Strongest acidic pKa [MProp:scalar:double]>
7.06

> <Strongest basic pKa [MProp:scalar:double]>
1.98

> <Isoelectric point [MProp:scalar:double]>
4.52

> <Intrinsic solubility [logS] [MProp:scalar:double]>
-2.5

> <Solubility category>
High

> <logP [MProp:scalar:double]>
0.23

> <logD_PH0 [MProp:scalar:double]>
-1.57

> <logD_PH1 [MProp:scalar:double]>
-0.77

> <logD_PH2 [MProp:scalar:double]>
-0.06

> <logD_PH3 [MProp:scalar:double]>
0.19

> <logD_PH4 [MProp:scalar:double]>
0.23

> <logD_PH5 [MProp:scalar:double]>
0.23

> <logD_PH6 [MProp:scalar:double]>
0.2

> <logD_PH7 [MProp:scalar:double]>
0.0

> <logD_PH8 [MProp:scalar:double]>
-0.46

> <logD_PH9 [MProp:scalar:double]>
-0.68

> <logD_PH10 [MProp:scalar:double]>
-0.71

> <logD_PH11 [MProp:scalar:double]>
-0.71

> <logD_PH12 [MProp:scalar:double]>
-0.71

> <logD_PH13 [MProp:scalar:double]>
-0.71

> <logD_PH14 [MProp:scalar:double]>
-0.71

> <HLB [MProp:scalar:double]>
15.17

> <IUPAC name>
4-amino-N-(5-methoxypyrimidin-2-yl)benzene-1-sulfonamide

> <SMILES>
COC1=CN=C(NS(=O)(=O)C2=CC=C(N)C=C2)N=C1

> <InChI>
InChI=1S/C11H12N4O3S/c1-18-9-6-13-11(14-7-9)15-19(16,17)10-4-2-8(12)3-5-10/h2-7H,12H2,1H3,(H,13,14,15)

> <InChIKey>
GPTONYMQFTZPKC-UHFFFAOYSA-N

> <Traditional name>
kiron

> <Common names>
5-methoxysulfadiazine; bayrena; berlicid; dairena; durenat; durisan; juvoxin; kinecid; kirocid; kiron; longasulf; methoxypyrimal; solfametossidiazina; sulfa-5-methoxypyrimidine; sulfameter; sulfameter (substance); sulfamethorine; sulfamethoxidiazine; sulfamethoxine; sulfamethoxydiazine; sulfamethoxydin; sulfamethoxydine; sulfamethoxypyrimidine; sulfametin; sulfametinum; sulfametorine; sulfametorinum; sulfametoxidiazina; sulfametoxidine; sulfametoxipirimidine; sulfametoxydiazine; sulfametoxydiazinum; sulla; sulphameter; sulphamethoxydiazine; supramid; ultrax; 磺胺对甲氧嘧啶

> <CAS Registry Numbers(R)>
651-06-9

$$$$
Sulfamethazine
  Mrv2222 01232613222D          

 19 20  0  0  0  0            999 V2000
    2.1434   -1.2375    0.0000 C   0  0  0  0  0  0  0  0  0  0  0  0
    2.1434   -2.0625    0.0000 C   0  0  0  0  0  0  0  0  0  0  0  0
    2.8579   -2.4750    0.0000 C   0  0  0  0  0  0  0  0  0  0  0  0
    2.8579   -3.3000    0.0000 C   0  0  0  0  0  0  0  0  0  0  0  0
    2.1434   -3.7125    0.0000 N   0  0  0  0  0  0  0  0  0  0  0  0
    1.4289   -3.3000    0.0000 C   0  0  0  0  0  0  0  0  0  0  0  0
    1.4289   -2.4750    0.0000 N   0  0  0  0  0  0  0  0  0  0  0  0
    0.7145   -3.7125    0.0000 N   0  0  0  0  0  0  0  0  0  0  0  0
    0.0000   -3.3000    0.0000 S   0  0  0  0  0  0  0  0  0  0  0  0
    0.4125   -2.5855    0.0000 O   0  0  0  0  0  0  0  0  0  0  0  0
   -0.4125   -4.0145    0.0000 O   0  0  0  0  0  0  0  0  0  0  0  0
   -0.7145   -2.8875    0.0000 C   0  0  0  0  0  0  0  0  0  0  0  0
   -1.4289   -3.3000    0.0000 C   0  0  0  0  0  0  0  0  0  0  0  0
   -2.1434   -2.8875    0.0000 C   0  0  0  0  0  0  0  0  0  0  0  0
   -2.1434   -2.0625    0.0000 C   0  0  0  0  0  0  0  0  0  0  0  0
   -1.4289   -1.6500    0.0000 C   0  0  0  0  0  0  0  0  0  0  0  0
   -0.7145   -2.0625    0.0000 C   0  0  0  0  0  0  0  0  0  0  0  0
   -2.8579   -1.6500    0.0000 N   0  0  0  0  0  0  0  0  0  0  0  0
    3.5724   -3.7125    0.0000 C   0  0  0  0  0  0  0  0  0  0  0  0
  1  2  1  0  0  0  0
  2  3  2  0  0  0  0
  3  4  1  0  0  0  0
  4  5  2  0  0  0  0
  5  6  1  0  0  0  0
  6  7  2  0  0  0  0
  2  7  1  0  0  0  0
  6  8  1  0  0  0  0
  8  9  1  0  0  0  0
  9 10  2  0  0  0  0
  9 11  2  0  0  0  0
  9 12  1  0  0  0  0
 12 13  2  0  0  0  0
 13 14  1  0  0  0  0
 14 15  2  0  0  0  0
 15 16  1  0  0  0  0
 16 17  2  0  0  0  0
 12 17  1  0  0  0  0
 15 18  1  0  0  0  0
  4 19  1  0  0  0  0
M  END
> <Molar mass [g/mol] [MProp:scalar:double]>
278.33

> <Exact mass [Da] [MProp:scalar:double]>
278.083746881

> <Formula>
C12H14N4O2S

> <Composition>
C (51.78%), H (5.07%), N (20.13%), O (11.50%), S (11.52%)

> <Lipinski's rule of five [MProp:scalar:boolean]>
true

> <Atom count [MProp:scalar:integer]>
33

> <Heavy atom count [MProp:scalar:integer]>
19

> <Asymmetric atom count [MProp:scalar:integer]>
0

> <Rotatable bond count [MProp:scalar:integer]>
2

> <Ring count [MProp:scalar:integer]>
2

> <Aromatic ring count [MProp:scalar:integer]>
2

> <Hetero ring count [MProp:scalar:integer]>
1

> <FSP3 [MProp:scalar:double]>
0.17

> <Hydrogen bond donor count [MProp:scalar:integer]>
2

> <Hydrogen bond acceptor count [MProp:scalar:integer]>
5

> <Formal charge [MProp:scalar:integer]>
0

> <Topological polar surface area [A^2] [MProp:scalar:double]>
97.97

> <Polarizability [A^3] [MProp:scalar:double]>
28.09

> <Molar refractivity [cm^3/mol] [MProp:scalar:double]>
73.38

> <Van der Waals volume [A^3] [MProp:scalar:double]>
236.17

> <Minimum projection area [A^2] [MProp:scalar:double]>
49.44

> <Maximum projection area [A^2] [MProp:scalar:double]>
72.92

> <Minimum projection radius [A] [MProp:scalar:double]>
4.9

> <Maximum projection radius [A] [MProp:scalar:double]>
7.04

> <Van der Waals surface area [A^2] [MProp:scalar:double]>
390.88

> <Solvent accessible surface area [A^2] [MProp:scalar:double]>
518.61

> <Strongest acidic pKa [MProp:scalar:double]>
6.99

> <Strongest basic pKa [MProp:scalar:double]>
2.0

> <Isoelectric point [MProp:scalar:double]>
4.5

> <Intrinsic solubility [logS] [MProp:scalar:double]>
-2.82

> <Solubility category>
High

> <logP [MProp:scalar:double]>
0.65

> <logD_PH0 [MProp:scalar:double]>
-1.2

> <logD_PH1 [MProp:scalar:double]>
-0.37

> <logD_PH2 [MProp:scalar:double]>
0.35

> <logD_PH3 [MProp:scalar:double]>
0.61

> <logD_PH4 [MProp:scalar:double]>
0.65

> <logD_PH5 [MProp:scalar:double]>
0.65

> <logD_PH6 [MProp:scalar:double]>
0.61

> <logD_PH7 [MProp:scalar:double]>
0.39

> <logD_PH8 [MProp:scalar:double]>
-0.06

> <logD_PH9 [MProp:scalar:double]>
-0.26

> <logD_PH10 [MProp:scalar:double]>
-0.29

> <logD_PH11 [MProp:scalar:double]>
-0.29

> <logD_PH12 [MProp:scalar:double]>
-0.29

> <logD_PH13 [MProp:scalar:double]>
-0.29

> <logD_PH14 [MProp:scalar:double]>
-0.29

> <HLB [MProp:scalar:double]>
12.86

> <IUPAC name>
4-amino-N-(4,6-dimethylpyrimidin-2-yl)benzene-1-sulfonamide

> <SMILES>
CC1=CC(C)=NC(NS(=O)(=O)C2=CC=C(N)C=C2)=N1

> <InChI>
InChI=1S/C12H14N4O2S/c1-8-7-9(2)15-12(14-8)16-19(17,18)11-5-3-10(13)4-6-11/h3-7H,13H2,1-2H3,(H,14,15,16)

> <InChIKey>
ASWVTGNCAZCNNR-UHFFFAOYSA-N

> <Traditional name>
sulfamethazine

> <Common names>
SA III; SMZ; azolmetazin; cremomethazine; diazil (the sulfanilamide); dimezathine; dimidin-R; hava-span; intradine; kelametazine; mermeth; metazin; neasina; neazina; pirmazin; solfadimidina; spanbolet; sulfa-isodimerazine; sulfadimerazine; sulfadimesin; sulfadimesine; sulfadimethyldiazine; sulfadimethylpyrimidine; sulfadimezin; sulfadimezine; sulfadimezinum; sulfadimidin; sulfadimidina; sulfadimidine; sulfadimidine (product); sulfadimidinum; sulfadine; sulfametazina; sulfametazyny; sulfamethazine; sulfamethazine (substance); sulfamethazine preparation; sulfamethiazine; sulfamezathine; sulfodimesin; sulfodimezine; sulphadimethylpyrimidine; sulphadimidine; sulphamethasine; sulphamethazine; sulphamezathine; sulphamidine; sulphodimezine; superseptil; superseptyl; vertolan; 磺胺二甲嘧啶

> <CAS Registry Numbers(R)>
57-68-1

$$$$
Sulfamethizole
  Mrv2222 01232613222D          

 17 18  0  0  0  0            999 V2000
    2.0367   -1.2991    0.0000 C   0  0  0  0  0  0  0  0  0  0  0  0
    2.0367   -2.1241    0.0000 C   0  0  0  0  0  0  0  0  0  0  0  0
    2.7041   -2.6090    0.0000 N   0  0  0  0  0  0  0  0  0  0  0  0
    2.4492   -3.3937    0.0000 N   0  0  0  0  0  0  0  0  0  0  0  0
    1.6242   -3.3937    0.0000 C   0  0  0  0  0  0  0  0  0  0  0  0
    1.3693   -2.6090    0.0000 S   0  0  0  0  0  0  0  0  0  0  0  0
    1.1393   -4.0611    0.0000 N   0  0  0  0  0  0  0  0  0  0  0  0
    0.3188   -3.9749    0.0000 S   0  0  0  0  0  0  0  0  0  0  0  0
    0.4050   -3.1544    0.0000 O   0  0  0  0  0  0  0  0  0  0  0  0
    0.2326   -4.7953    0.0000 O   0  0  0  0  0  0  0  0  0  0  0  0
   -0.5017   -3.8886    0.0000 C   0  0  0  0  0  0  0  0  0  0  0  0
   -0.9866   -4.5561    0.0000 C   0  0  0  0  0  0  0  0  0  0  0  0
   -1.8071   -4.4698    0.0000 C   0  0  0  0  0  0  0  0  0  0  0  0
   -2.1426   -3.7161    0.0000 C   0  0  0  0  0  0  0  0  0  0  0  0
   -1.6577   -3.0487    0.0000 C   0  0  0  0  0  0  0  0  0  0  0  0
   -0.8372   -3.1349    0.0000 C   0  0  0  0  0  0  0  0  0  0  0  0
   -2.9631   -3.6299    0.0000 N   0  0  0  0  0  0  0  0  0  0  0  0
  1  2  1  0  0  0  0
  2  3  2  0  0  0  0
  3  4  1  0  0  0  0
  4  5  2  0  0  0  0
  5  6  1  0  0  0  0
  2  6  1  0  0  0  0
  5  7  1  0  0  0  0
  7  8  1  0  0  0  0
  8  9  2  0  0  0  0
  8 10  2  0  0  0  0
  8 11  1  0  0  0  0
 11 12  2  0  0  0  0
 12 13  1  0  0  0  0
 13 14  2  0  0  0  0
 14 15  1  0  0  0  0
 15 16  2  0  0  0  0
 11 16  1  0  0  0  0
 14 17  1  0  0  0  0
M  END
> <Molar mass [g/mol] [MProp:scalar:double]>
270.33

> <Exact mass [Da] [MProp:scalar:double]>
270.024517926

> <Formula>
C9H10N4O2S2

> <Composition>
C (39.99%), H (3.73%), N (20.73%), O (11.84%), S (23.72%)

> <Lipinski's rule of five [MProp:scalar:boolean]>
true

> <Atom count [MProp:scalar:integer]>
27

> <Heavy atom count [MProp:scalar:integer]>
17

> <Asymmetric atom count [MProp:scalar:integer]>
0

> <Rotatable bond count [MProp:scalar:integer]>
2

> <Ring count [MProp:scalar:integer]>
2

> <Aromatic ring count [MProp:scalar:integer]>
2

> <Hetero ring count [MProp:scalar:integer]>
1

> <FSP3 [MProp:scalar:double]>
0.11

> <Hydrogen bond donor count [MProp:scalar:integer]>
2

> <Hydrogen bond acceptor count [MProp:scalar:integer]>
5

> <Formal charge [MProp:scalar:integer]>
0

> <Topological polar surface area [A^2] [MProp:scalar:double]>
97.97

> <Polarizability [A^3] [MProp:scalar:double]>
25.14

> <Molar refractivity [cm^3/mol] [MProp:scalar:double]>
66.84

> <Van der Waals volume [A^3] [MProp:scalar:double]>
210.69

> <Minimum projection area [A^2] [MProp:scalar:double]>
47.64

> <Maximum projection area [A^2] [MProp:scalar:double]>
66.86

> <Minimum projection radius [A] [MProp:scalar:double]>
5.57

> <Maximum projection radius [A] [MProp:scalar:double]>
5.55

> <Van der Waals surface area [A^2] [MProp:scalar:double]>
337.47

> <Solvent accessible surface area [A^2] [MProp:scalar:double]>
465.26

> <Strongest acidic pKa [MProp:scalar:double]>
4.01

> <Strongest basic pKa [MProp:scalar:double]>
1.95

> <Isoelectric point [MProp:scalar:double]>
2.98

> <Intrinsic solubility [logS] [MProp:scalar:double]>
-2.82

> <Solubility category>
High

> <logP [MProp:scalar:double]>
0.21

> <logD_PH0 [MProp:scalar:double]>
-2.12

> <logD_PH1 [MProp:scalar:double]>
-0.85

> <logD_PH2 [MProp:scalar:double]>
-0.07

> <logD_PH3 [MProp:scalar:double]>
0.14

> <logD_PH4 [MProp:scalar:double]>
-0.04

> <logD_PH5 [MProp:scalar:double]>
-0.49

> <logD_PH6 [MProp:scalar:double]>
-0.7

> <logD_PH7 [MProp:scalar:double]>
-0.73

> <logD_PH8 [MProp:scalar:double]>
-0.73

> <logD_PH9 [MProp:scalar:double]>
-0.73

> <logD_PH10 [MProp:scalar:double]>
-0.73

> <logD_PH11 [MProp:scalar:double]>
-0.73

> <logD_PH12 [MProp:scalar:double]>
-0.73

> <logD_PH13 [MProp:scalar:double]>
-0.73

> <logD_PH14 [MProp:scalar:double]>
-0.73

> <HLB [MProp:scalar:double]>
14.23

> <IUPAC name>
4-amino-N-(5-methyl-1,3,4-thiadiazol-2-yl)benzene-1-sulfonamide

> <SMILES>
CC1=NN=C(NS(=O)(=O)C2=CC=C(N)C=C2)S1

> <InChI>
InChI=1S/C9H10N4O2S2/c1-6-11-12-9(16-6)13-17(14,15)8-4-2-7(10)3-5-8/h2-5H,10H2,1H3,(H,12,13)

> <InChIKey>
VACCAVUAMIDAGB-UHFFFAOYSA-N

> <Traditional name>
sulfamethizole

> <Common names>
Uroz; ayerlucil; ccris 756; famet; fna brand of sulfamethizole; fna, sulfamethizol; lucosil; microsul; proklar; renasul; rufol; salimol; solfametizolo; sulamethizole; sulfa gram; sulfamethazole; sulfamethiazole; sulfamethizol; sulfamethizol fna; sulfamethizole; sulfamethizole (product); sulfamethizole (substance); sulfamethizole [usan:inn:jan]; sulfamethizole preparation; sulfamethizolum; sulfamethylthiadiazole; sulfametizol; sulfametizol [inn-spanish]; sulfapyelon; sulfstat; sulfurine; sulphamethizole; sulphamethyltiadiazole; tetracid; thidicur; thiosulfil; thiosulfil forte; ultrasul; urgo brand of sulfamethizole; urocydal; urodiaton; urolucosil; urosulfin; wyeth brand of sulfamethizole

> <CAS Registry Numbers(R)>
144-82-1

$$$$
Sulfamethoxazole
  Mrv2222 01232613222D          

 17 18  0  0  0  0            999 V2000
    2.0367   -1.2991    0.0000 C   0  0  0  0  0  0  0  0  0  0  0  0
    2.0367   -2.1241    0.0000 C   0  0  0  0  0  0  0  0  0  0  0  0
    2.7041   -2.6090    0.0000 C   0  0  0  0  0  0  0  0  0  0  0  0
    2.4492   -3.3937    0.0000 C   0  0  0  0  0  0  0  0  0  0  0  0
    1.6242   -3.3937    0.0000 N   0  0  0  0  0  0  0  0  0  0  0  0
    1.3693   -2.6090    0.0000 O   0  0  0  0  0  0  0  0  0  0  0  0
    2.9341   -4.0611    0.0000 N   0  0  0  0  0  0  0  0  0  0  0  0
    2.5986   -4.8148    0.0000 S   0  0  0  0  0  0  0  0  0  0  0  0
    1.8449   -4.4792    0.0000 O   0  0  0  0  0  0  0  0  0  0  0  0
    3.3522   -5.1503    0.0000 O   0  0  0  0  0  0  0  0  0  0  0  0
    2.2630   -5.5684    0.0000 C   0  0  0  0  0  0  0  0  0  0  0  0
    2.7479   -6.2359    0.0000 C   0  0  0  0  0  0  0  0  0  0  0  0
    2.4124   -6.9896    0.0000 C   0  0  0  0  0  0  0  0  0  0  0  0
    1.5919   -7.0758    0.0000 C   0  0  0  0  0  0  0  0  0  0  0  0
    1.1070   -6.4084    0.0000 C   0  0  0  0  0  0  0  0  0  0  0  0
    1.4425   -5.6547    0.0000 C   0  0  0  0  0  0  0  0  0  0  0  0
    1.2563   -7.8295    0.0000 N   0  0  0  0  0  0  0  0  0  0  0  0
  1  2  1  0  0  0  0
  2  3  2  0  0  0  0
  3  4  1  0  0  0  0
  4  5  2  0  0  0  0
  5  6  1  0  0  0  0
  2  6  1  0  0  0  0
  4  7  1  0  0  0  0
  7  8  1  0  0  0  0
  8  9  2  0  0  0  0
  8 10  2  0  0  0  0
  8 11  1  0  0  0  0
 11 12  2  0  0  0  0
 12 13  1  0  0  0  0
 13 14  2  0  0  0  0
 14 15  1  0  0  0  0
 15 16  2  0  0  0  0
 11 16  1  0  0  0  0
 14 17  1  0  0  0  0
M  END
> <Molar mass [g/mol] [MProp:scalar:double]>
253.28

> <Exact mass [Da] [MProp:scalar:double]>
253.0521124

> <Formula>
C10H11N3O3S

> <Composition>
C (47.42%), H (4.38%), N (16.59%), O (18.95%), S (12.66%)

> <Lipinski's rule of five [MProp:scalar:boolean]>
true

> <Atom count [MProp:scalar:integer]>
28

> <Heavy atom count [MProp:scalar:integer]>
17

> <Asymmetric atom count [MProp:scalar:integer]>
0

> <Rotatable bond count [MProp:scalar:integer]>
2

> <Ring count [MProp:scalar:integer]>
2

> <Aromatic ring count [MProp:scalar:integer]>
2

> <Hetero ring count [MProp:scalar:integer]>
1

> <FSP3 [MProp:scalar:double]>
0.1

> <Hydrogen bond donor count [MProp:scalar:integer]>
2

> <Hydrogen bond acceptor count [MProp:scalar:integer]>
4

> <Formal charge [MProp:scalar:integer]>
0

> <Topological polar surface area [A^2] [MProp:scalar:double]>
98.22

> <Polarizability [A^3] [MProp:scalar:double]>
24.15

> <Molar refractivity [cm^3/mol] [MProp:scalar:double]>
64.5

> <Van der Waals volume [A^3] [MProp:scalar:double]>
204.51

> <Minimum projection area [A^2] [MProp:scalar:double]>
44.68

> <Maximum projection area [A^2] [MProp:scalar:double]>
66.06

> <Minimum projection radius [A] [MProp:scalar:double]>
4.89

> <Maximum projection radius [A] [MProp:scalar:double]>
5.44

> <Van der Waals surface area [A^2] [MProp:scalar:double]>
337.62

> <Solvent accessible surface area [A^2] [MProp:scalar:double]>
456.43

> <Strongest acidic pKa [MProp:scalar:double]>
5.86

> <Strongest basic pKa [MProp:scalar:double]>
1.97

> <Isoelectric point [MProp:scalar:double]>
3.91

> <Intrinsic solubility [logS] [MProp:scalar:double]>
-2.2

> <Solubility category>
High

> <logP [MProp:scalar:double]>
0.79

> <logD_PH0 [MProp:scalar:double]>
-1.44

> <logD_PH1 [MProp:scalar:double]>
-0.27

> <logD_PH2 [MProp:scalar:double]>
0.5

> <logD_PH3 [MProp:scalar:double]>
0.75

> <logD_PH4 [MProp:scalar:double]>
0.78

> <logD_PH5 [MProp:scalar:double]>
0.74

> <logD_PH6 [MProp:scalar:double]>
0.48

> <logD_PH7 [MProp:scalar:double]>
0.03

> <logD_PH8 [MProp:scalar:double]>
-0.13

> <logD_PH9 [MProp:scalar:double]>
-0.15

> <logD_PH10 [MProp:scalar:double]>
-0.15

> <logD_PH11 [MProp:scalar:double]>
-0.15

> <logD_PH12 [MProp:scalar:double]>
-0.15

> <logD_PH13 [MProp:scalar:double]>
-0.15

> <logD_PH14 [MProp:scalar:double]>
-0.15

> <HLB [MProp:scalar:double]>
13.51

> <IUPAC name>
4-amino-N-(5-methyl-1,2-oxazol-3-yl)benzene-1-sulfonamide

> <SMILES>
CC1=CC(NS(=O)(=O)C2=CC=C(N)C=C2)=NO1

> <InChI>
InChI=1S/C10H11N3O3S/c1-7-6-10(12-16-7)13-17(14,15)9-4-2-8(11)3-5-9/h2-6H,11H2,1H3,(H,12,13)

> <InChIKey>
JLKIGFTWXXRPMT-UHFFFAOYSA-N

> <Traditional name>
sulfamethoxazole

> <Common names>
SIM; SMX; Trib; apo-sulfamethoxazole; azo gantanol; azo-gantanol; bactrim; bactrimel; ccris 567; gamazole; gantanol; gantanol-DS; metoxal; radonil; septran; simsinomin; sinomin; solfametossazolo; sulfamethalazole; sulfamethoxazol; sulfamethoxazole; sulfamethoxazole (product); sulfamethoxazole - chemical; sulfamethoxazole preparation; sulfamethoxazolum; sulfamethoxizole; sulfamethylisoxazole; sulfametoxazol; sulfisomezole; sulpha-methoxizole; sulphamethalazole; sulphamethoxazol; sulphamethoxazole; sulphamethoxazole - chemical; sulphamethoxazole BP 98; sulphamethylisoxazole; sulphisomezole; urobak

> <CAS Registry Numbers(R)>
723-46-6, 144930-01-8

$$$$
Sulfamethoxypyridazine
  Mrv2222 01232613222D          

 19 20  0  0  0  0            999 V2000
    1.4289   -0.8250    0.0000 C   0  0  0  0  0  0  0  0  0  0  0  0
    2.1434   -1.2375    0.0000 O   0  0  0  0  0  0  0  0  0  0  0  0
    2.1434   -2.0625    0.0000 C   0  0  0  0  0  0  0  0  0  0  0  0
    2.8579   -2.4750    0.0000 N   0  0  0  0  0  0  0  0  0  0  0  0
    2.8579   -3.3000    0.0000 N   0  0  0  0  0  0  0  0  0  0  0  0
    2.1434   -3.7125    0.0000 C   0  0  0  0  0  0  0  0  0  0  0  0
    1.4289   -3.3000    0.0000 C   0  0  0  0  0  0  0  0  0  0  0  0
    1.4289   -2.4750    0.0000 C   0  0  0  0  0  0  0  0  0  0  0  0
    2.1434   -4.5375    0.0000 N   0  0  0  0  0  0  0  0  0  0  0  0
    1.4289   -4.9500    0.0000 S   0  0  0  0  0  0  0  0  0  0  0  0
    1.0164   -4.2355    0.0000 O   0  0  0  0  0  0  0  0  0  0  0  0
    1.8414   -5.6645    0.0000 O   0  0  0  0  0  0  0  0  0  0  0  0
    0.7145   -5.3625    0.0000 C   0  0  0  0  0  0  0  0  0  0  0  0
    0.7145   -6.1875    0.0000 C   0  0  0  0  0  0  0  0  0  0  0  0
    0.0000   -6.6000    0.0000 C   0  0  0  0  0  0  0  0  0  0  0  0
   -0.7145   -6.1875    0.0000 C   0  0  0  0  0  0  0  0  0  0  0  0
   -0.7145   -5.3625    0.0000 C   0  0  0  0  0  0  0  0  0  0  0  0
    0.0000   -4.9500    0.0000 C   0  0  0  0  0  0  0  0  0  0  0  0
   -1.4289   -6.6000    0.0000 N   0  0  0  0  0  0  0  0  0  0  0  0
  1  2  1  0  0  0  0
  2  3  1  0  0  0  0
  3  4  2  0  0  0  0
  4  5  1  0  0  0  0
  5  6  2  0  0  0  0
  6  7  1  0  0  0  0
  7  8  2  0  0  0  0
  3  8  1  0  0  0  0
  6  9  1  0  0  0  0
  9 10  1  0  0  0  0
 10 11  2  0  0  0  0
 10 12  2  0  0  0  0
 10 13  1  0  0  0  0
 13 14  2  0  0  0  0
 14 15  1  0  0  0  0
 15 16  2  0  0  0  0
 16 17  1  0  0  0  0
 17 18  2  0  0  0  0
 13 18  1  0  0  0  0
 16 19  1  0  0  0  0
M  END
> <Molar mass [g/mol] [MProp:scalar:double]>
280.3

> <Exact mass [Da] [MProp:scalar:double]>
280.063011436

> <Formula>
C11H12N4O3S

> <Composition>
C (47.14%), H (4.32%), N (19.99%), O (17.12%), S (11.44%)

> <Lipinski's rule of five [MProp:scalar:boolean]>
true

> <Atom count [MProp:scalar:integer]>
31

> <Heavy atom count [MProp:scalar:integer]>
19

> <Asymmetric atom count [MProp:scalar:integer]>
0

> <Rotatable bond count [MProp:scalar:integer]>
3

> <Ring count [MProp:scalar:integer]>
2

> <Aromatic ring count [MProp:scalar:integer]>
2

> <Hetero ring count [MProp:scalar:integer]>
1

> <FSP3 [MProp:scalar:double]>
0.09

> <Hydrogen bond donor count [MProp:scalar:integer]>
2

> <Hydrogen bond acceptor count [MProp:scalar:integer]>
6

> <Formal charge [MProp:scalar:integer]>
0

> <Topological polar surface area [A^2] [MProp:scalar:double]>
107.2

> <Polarizability [A^3] [MProp:scalar:double]>
27.13

> <Molar refractivity [cm^3/mol] [MProp:scalar:double]>
72.39

> <Van der Waals volume [A^3] [MProp:scalar:double]>
228.47

> <Minimum projection area [A^2] [MProp:scalar:double]>
50.8

> <Maximum projection area [A^2] [MProp:scalar:double]>
69.98

> <Minimum projection radius [A] [MProp:scalar:double]>
4.9

> <Maximum projection radius [A] [MProp:scalar:double]>
6.18

> <Van der Waals surface area [A^2] [MProp:scalar:double]>
373.49

> <Solvent accessible surface area [A^2] [MProp:scalar:double]>
498.28

> <Strongest acidic pKa [MProp:scalar:double]>
6.84

> <Strongest basic pKa [MProp:scalar:double]>
2.02

> <Isoelectric point [MProp:scalar:double]>
4.43

> <Intrinsic solubility [logS] [MProp:scalar:double]>
-2.91

> <Solubility category>
High

> <logP [MProp:scalar:double]>
0.47

> <logD_PH0 [MProp:scalar:double]>
-1.38

> <logD_PH1 [MProp:scalar:double]>
-0.57

> <logD_PH2 [MProp:scalar:double]>
0.16

> <logD_PH3 [MProp:scalar:double]>
0.42

> <logD_PH4 [MProp:scalar:double]>
0.46

> <logD_PH5 [MProp:scalar:double]>
0.46

> <logD_PH6 [MProp:scalar:double]>
0.41

> <logD_PH7 [MProp:scalar:double]>
0.15

> <logD_PH8 [MProp:scalar:double]>
-0.3

> <logD_PH9 [MProp:scalar:double]>
-0.45

> <logD_PH10 [MProp:scalar:double]>
-0.47

> <logD_PH11 [MProp:scalar:double]>
-0.48

> <logD_PH12 [MProp:scalar:double]>
-0.48

> <logD_PH13 [MProp:scalar:double]>
-0.48

> <logD_PH14 [MProp:scalar:double]>
-0.48

> <HLB [MProp:scalar:double]>
14.43

> <IUPAC name>
4-amino-N-(6-methoxypyridazin-3-yl)benzene-1-sulfonamide

> <SMILES>
COC1=NN=C(NS(=O)(=O)C2=CC=C(N)C=C2)C=C1

> <InChI>
InChI=1S/C11H12N4O3S/c1-18-11-7-6-10(13-14-11)15-19(16,17)9-4-2-8(12)3-5-9/h2-7H,12H2,1H3,(H,13,15)

> <InChIKey>
VLYWMPOKSSWJAL-UHFFFAOYSA-N

> <Traditional name>
longin

> <Common names>
3-sulfa-6-methoxypyridazine; SMOP; altezol; davosin; depovernil; durox; kinex; kynex; lederkyn; lentac; lisulfen; longin; medicel; midicel; midikel; myasul; opinsul; paramid; paramid supra; petrisul; piridolo; quinoseptyl; retamid; retasulfin; slosul; solfametossipiridazina; spofadazine; sulfalex; sulfamethoxipyridazine; sulfamethoxipyridazinum; sulfamethoxypyridazine; sulfamethoxypyridazine (product); sulfamethoxypyridazine (substance); sulfamethoxypyridazinum; sulfametoxipiridazina; sulfametoxipiridazine; sulfapyridazine; sulfdurazin; sulfozona; sulphamethoxypyridazine; sultirene; vinces; 磺胺甲氧嗪

> <CAS Registry Numbers(R)>
80-35-3

$$$$
Sulfamonomethoxine
  Mrv2222 01232613222D          

 19 20  0  0  0  0            999 V2000
    2.8579   -0.8250    0.0000 C   0  0  0  0  0  0  0  0  0  0  0  0
    2.1434   -1.2375    0.0000 O   0  0  0  0  0  0  0  0  0  0  0  0
    2.1434   -2.0625    0.0000 C   0  0  0  0  0  0  0  0  0  0  0  0
    2.8579   -2.4750    0.0000 N   0  0  0  0  0  0  0  0  0  0  0  0
    2.8579   -3.3000    0.0000 C   0  0  0  0  0  0  0  0  0  0  0  0
    2.1434   -3.7125    0.0000 N   0  0  0  0  0  0  0  0  0  0  0  0
    1.4289   -3.3000    0.0000 C   0  0  0  0  0  0  0  0  0  0  0  0
    1.4289   -2.4750    0.0000 C   0  0  0  0  0  0  0  0  0  0  0  0
    0.7145   -3.7125    0.0000 N   0  0  0  0  0  0  0  0  0  0  0  0
    0.0000   -3.3000    0.0000 S   0  0  0  0  0  0  0  0  0  0  0  0
    0.4125   -2.5855    0.0000 O   0  0  0  0  0  0  0  0  0  0  0  0
   -0.4125   -4.0145    0.0000 O   0  0  0  0  0  0  0  0  0  0  0  0
   -0.7145   -2.8875    0.0000 C   0  0  0  0  0  0  0  0  0  0  0  0
   -1.4289   -3.3000    0.0000 C   0  0  0  0  0  0  0  0  0  0  0  0
   -2.1434   -2.8875    0.0000 C   0  0  0  0  0  0  0  0  0  0  0  0
   -2.1434   -2.0625    0.0000 C   0  0  0  0  0  0  0  0  0  0  0  0
   -1.4289   -1.6500    0.0000 C   0  0  0  0  0  0  0  0  0  0  0  0
   -0.7145   -2.0625    0.0000 C   0  0  0  0  0  0  0  0  0  0  0  0
   -2.8579   -1.6500    0.0000 N   0  0  0  0  0  0  0  0  0  0  0  0
  1  2  1  0  0  0  0
  2  3  1  0  0  0  0
  3  4  2  0  0  0  0
  4  5  1  0  0  0  0
  5  6  2  0  0  0  0
  6  7  1  0  0  0  0
  7  8  2  0  0  0  0
  3  8  1  0  0  0  0
  7  9  1  0  0  0  0
  9 10  1  0  0  0  0
 10 11  2  0  0  0  0
 10 12  2  0  0  0  0
 10 13  1  0  0  0  0
 13 14  2  0  0  0  0
 14 15  1  0  0  0  0
 15 16  2  0  0  0  0
 16 17  1  0  0  0  0
 17 18  2  0  0  0  0
 13 18  1  0  0  0  0
 16 19  1  0  0  0  0
M  END
> <Molar mass [g/mol] [MProp:scalar:double]>
280.3

> <Exact mass [Da] [MProp:scalar:double]>
280.063011436

> <Formula>
C11H12N4O3S

> <Composition>
C (47.14%), H (4.32%), N (19.99%), O (17.12%), S (11.44%)

> <Lipinski's rule of five [MProp:scalar:boolean]>
true

> <Atom count [MProp:scalar:integer]>
31

> <Heavy atom count [MProp:scalar:integer]>
19

> <Asymmetric atom count [MProp:scalar:integer]>
0

> <Rotatable bond count [MProp:scalar:integer]>
3

> <Ring count [MProp:scalar:integer]>
2

> <Aromatic ring count [MProp:scalar:integer]>
2

> <Hetero ring count [MProp:scalar:integer]>
1

> <FSP3 [MProp:scalar:double]>
0.09

> <Hydrogen bond donor count [MProp:scalar:integer]>
2

> <Hydrogen bond acceptor count [MProp:scalar:integer]>
6

> <Formal charge [MProp:scalar:integer]>
0

> <Topological polar surface area [A^2] [MProp:scalar:double]>
107.2

> <Polarizability [A^3] [MProp:scalar:double]>
27.12

> <Molar refractivity [cm^3/mol] [MProp:scalar:double]>
71.35

> <Van der Waals volume [A^3] [MProp:scalar:double]>
228.74

> <Minimum projection area [A^2] [MProp:scalar:double]>
48.01

> <Maximum projection area [A^2] [MProp:scalar:double]>
72.14

> <Minimum projection radius [A] [MProp:scalar:double]>
4.88

> <Maximum projection radius [A] [MProp:scalar:double]>
5.82

> <Van der Waals surface area [A^2] [MProp:scalar:double]>
373.54

> <Solvent accessible surface area [A^2] [MProp:scalar:double]>
476.3

> <Strongest acidic pKa [MProp:scalar:double]>
7.15

> <Strongest basic pKa [MProp:scalar:double]>
2.49

> <Isoelectric point [MProp:scalar:double]>
4.8

> <Intrinsic solubility [logS] [MProp:scalar:double]>
-3.13

> <Solubility category>
High

> <logP [MProp:scalar:double]>
0.74

> <logD_PH0 [MProp:scalar:double]>
-2.79

> <logD_PH1 [MProp:scalar:double]>
-1.42

> <logD_PH2 [MProp:scalar:double]>
0.0

> <logD_PH3 [MProp:scalar:double]>
0.62

> <logD_PH4 [MProp:scalar:double]>
0.73

> <logD_PH5 [MProp:scalar:double]>
0.74

> <logD_PH6 [MProp:scalar:double]>
0.71

> <logD_PH7 [MProp:scalar:double]>
0.54

> <logD_PH8 [MProp:scalar:double]>
0.09

> <logD_PH9 [MProp:scalar:double]>
-0.16

> <logD_PH10 [MProp:scalar:double]>
-0.2

> <logD_PH11 [MProp:scalar:double]>
-0.2

> <logD_PH12 [MProp:scalar:double]>
-0.2

> <logD_PH13 [MProp:scalar:double]>
-0.2

> <logD_PH14 [MProp:scalar:double]>
-0.2

> <HLB [MProp:scalar:double]>
14.8

> <IUPAC name>
4-amino-N-(6-methoxypyrimidin-4-yl)benzene-1-sulfonamide

> <SMILES>
COC1=NC=NC(NS(=O)(=O)C2=CC=C(N)C=C2)=C1

> <InChI>
InChI=1S/C11H12N4O3S/c1-18-11-6-10(13-7-14-11)15-19(16,17)9-4-2-8(12)3-5-9/h2-7H,12H2,1H3,(H,13,14,15)

> <InChIKey>
WMPXPUYPYQKQCX-UHFFFAOYSA-N

> <Traditional name>
sulfamonomethoxine

> <Common names>
daimeton; sulfamonomethoxin; sulfamonomethoxine; sulfamonomethoxinum; sulfamonometoxina; 磺胺间甲氧嘧啶

> <CAS Registry Numbers(R)>
1220-83-3, 1416768-32-5

$$$$
Sulfanitran
  Mrv2222 01232613222D          

 23 24  0  0  0  0            999 V2000
    2.1434    0.4125    0.0000 C   0  0  0  0  0  0  0  0  0  0  0  0
    2.1434   -0.4125    0.0000 C   0  0  0  0  0  0  0  0  0  0  0  0
    1.4289   -0.8250    0.0000 O   0  0  0  0  0  0  0  0  0  0  0  0
    2.8579   -0.8250    0.0000 N   0  0  0  0  0  0  0  0  0  0  0  0
    2.8579   -1.6500    0.0000 C   0  0  0  0  0  0  0  0  0  0  0  0
    3.5724   -2.0625    0.0000 C   0  0  0  0  0  0  0  0  0  0  0  0
    3.5724   -2.8875    0.0000 C   0  0  0  0  0  0  0  0  0  0  0  0
    2.8579   -3.3000    0.0000 C   0  0  0  0  0  0  0  0  0  0  0  0
    2.1434   -2.8875    0.0000 C   0  0  0  0  0  0  0  0  0  0  0  0
    2.1434   -2.0625    0.0000 C   0  0  0  0  0  0  0  0  0  0  0  0
    2.8579   -4.1250    0.0000 S   0  0  0  0  0  0  0  0  0  0  0  0
    2.0329   -4.1250    0.0000 O   0  0  0  0  0  0  0  0  0  0  0  0
    3.6829   -4.1250    0.0000 O   0  0  0  0  0  0  0  0  0  0  0  0
    2.8579   -4.9500    0.0000 N   0  0  0  0  0  0  0  0  0  0  0  0
    2.1434   -5.3625    0.0000 C   0  0  0  0  0  0  0  0  0  0  0  0
    2.1434   -6.1875    0.0000 C   0  0  0  0  0  0  0  0  0  0  0  0
    1.4289   -6.6000    0.0000 C   0  0  0  0  0  0  0  0  0  0  0  0
    0.7145   -6.1875    0.0000 C   0  0  0  0  0  0  0  0  0  0  0  0
    0.7145   -5.3625    0.0000 C   0  0  0  0  0  0  0  0  0  0  0  0
    1.4289   -4.9500    0.0000 C   0  0  0  0  0  0  0  0  0  0  0  0
    0.0000   -6.6000    0.0000 N   0  3  0  0  0  0  0  0  0  0  0  0
    0.0000   -7.4250    0.0000 O   0  0  0  0  0  0  0  0  0  0  0  0
   -0.7145   -6.1875    0.0000 O   0  5  0  0  0  0  0  0  0  0  0  0
  1  2  1  0  0  0  0
  2  3  2  0  0  0  0
  2  4  1  0  0  0  0
  4  5  1  0  0  0  0
  5  6  2  0  0  0  0
  6  7  1  0  0  0  0
  7  8  2  0  0  0  0
  8  9  1  0  0  0  0
  9 10  2  0  0  0  0
  5 10  1  0  0  0  0
  8 11  1  0  0  0  0
 11 12  2  0  0  0  0
 11 13  2  0  0  0  0
 11 14  1  0  0  0  0
 14 15  1  0  0  0  0
 15 16  2  0  0  0  0
 16 17  1  0  0  0  0
 17 18  2  0  0  0  0
 18 19  1  0  0  0  0
 19 20  2  0  0  0  0
 15 20  1  0  0  0  0
 18 21  1  0  0  0  0
 21 22  2  0  0  0  0
 21 23  1  0  0  0  0
M  END
> <Molar mass [g/mol] [MProp:scalar:double]>
335.33

> <Exact mass [Da] [MProp:scalar:double]>
335.057591705

> <Formula>
C14H13N3O5S

> <Composition>
C (50.15%), H (3.91%), N (12.53%), O (23.86%), S (9.56%)

> <Lipinski's rule of five [MProp:scalar:boolean]>
true

> <Atom count [MProp:scalar:integer]>
36

> <Heavy atom count [MProp:scalar:integer]>
23

> <Asymmetric atom count [MProp:scalar:integer]>
0

> <Rotatable bond count [MProp:scalar:integer]>
4

> <Ring count [MProp:scalar:integer]>
2

> <Aromatic ring count [MProp:scalar:integer]>
2

> <Hetero ring count [MProp:scalar:integer]>
0

> <FSP3 [MProp:scalar:double]>
0.07

> <Hydrogen bond donor count [MProp:scalar:integer]>
2

> <Hydrogen bond acceptor count [MProp:scalar:integer]>
5

> <Formal charge [MProp:scalar:integer]>
0

> <Topological polar surface area [A^2] [MProp:scalar:double]>
118.41

> <Polarizability [A^3] [MProp:scalar:double]>
32.01

> <Molar refractivity [cm^3/mol] [MProp:scalar:double]>
84.07

> <Van der Waals volume [A^3] [MProp:scalar:double]>
270.79

> <Minimum projection area [A^2] [MProp:scalar:double]>
58.05

> <Maximum projection area [A^2] [MProp:scalar:double]>
84.65

> <Minimum projection radius [A] [MProp:scalar:double]>
5.8

> <Maximum projection radius [A] [MProp:scalar:double]>
6.24

> <Van der Waals surface area [A^2] [MProp:scalar:double]>
440.07

> <Solvent accessible surface area [A^2] [MProp:scalar:double]>
542.65

> <Strongest acidic pKa [MProp:scalar:double]>
7.44

> <Strongest basic pKa>
N/A

> <Isoelectric point>
N/A

> <Intrinsic solubility [logS] [MProp:scalar:double]>
-4.04

> <Solubility category>
Moderate

> <logP [MProp:scalar:double]>
1.64

> <logD_PH0 [MProp:scalar:double]>
1.64

> <logD_PH1 [MProp:scalar:double]>
1.64

> <logD_PH2 [MProp:scalar:double]>
1.64

> <logD_PH3 [MProp:scalar:double]>
1.64

> <logD_PH4 [MProp:scalar:double]>
1.64

> <logD_PH5 [MProp:scalar:double]>
1.64

> <logD_PH6 [MProp:scalar:double]>
1.62

> <logD_PH7 [MProp:scalar:double]>
1.52

> <logD_PH8 [MProp:scalar:double]>
1.12

> <logD_PH9 [MProp:scalar:double]>
0.78

> <logD_PH10 [MProp:scalar:double]>
0.7

> <logD_PH11 [MProp:scalar:double]>
0.7

> <logD_PH12 [MProp:scalar:double]>
0.69

> <logD_PH13 [MProp:scalar:double]>
0.65

> <logD_PH14 [MProp:scalar:double]>
0.36

> <HLB [MProp:scalar:double]>
24.07

> <IUPAC name>
N-{4-[(4-nitrophenyl)sulfamoyl]phenyl}acetamide

> <SMILES>
CC(=O)NC1=CC=C(C=C1)S(=O)(=O)NC1=CC=C(C=C1)[N+]([O-])=O

> <InChI>
InChI=1S/C14H13N3O5S/c1-10(18)15-11-4-8-14(9-5-11)23(21,22)16-12-2-6-13(7-3-12)17(19)20/h2-9,16H,1H3,(H,15,18)

> <InChIKey>
GWBPFRGXNGPPMF-UHFFFAOYSA-N

> <Traditional name>
sulfanitran

> <Common names>
sulfanitran

> <CAS Registry Numbers(R)>
122-16-7, 1353867-79-4

$$$$
Sulfaphenazole
  Mrv2222 01232613222D          

 22 24  0  0  0  0            999 V2000
    2.0367    0.3509    0.0000 C   0  0  0  0  0  0  0  0  0  0  0  0
    2.7512   -0.0616    0.0000 C   0  0  0  0  0  0  0  0  0  0  0  0
    2.7512   -0.8866    0.0000 C   0  0  0  0  0  0  0  0  0  0  0  0
    2.0367   -1.2991    0.0000 C   0  0  0  0  0  0  0  0  0  0  0  0
    1.3222   -0.8866    0.0000 C   0  0  0  0  0  0  0  0  0  0  0  0
    1.3222   -0.0616    0.0000 C   0  0  0  0  0  0  0  0  0  0  0  0
    2.0367   -2.1241    0.0000 N   0  0  0  0  0  0  0  0  0  0  0  0
    2.7041   -2.6090    0.0000 C   0  0  0  0  0  0  0  0  0  0  0  0
    2.4492   -3.3937    0.0000 C   0  0  0  0  0  0  0  0  0  0  0  0
    1.6242   -3.3937    0.0000 C   0  0  0  0  0  0  0  0  0  0  0  0
    1.3693   -2.6090    0.0000 N   0  0  0  0  0  0  0  0  0  0  0  0
    3.4888   -2.3541    0.0000 N   0  0  0  0  0  0  0  0  0  0  0  0
    4.1019   -2.9061    0.0000 S   0  0  0  0  0  0  0  0  0  0  0  0
    3.5498   -3.5192    0.0000 O   0  0  0  0  0  0  0  0  0  0  0  0
    4.6539   -2.2930    0.0000 O   0  0  0  0  0  0  0  0  0  0  0  0
    4.7150   -3.4582    0.0000 C   0  0  0  0  0  0  0  0  0  0  0  0
    5.4996   -3.2032    0.0000 C   0  0  0  0  0  0  0  0  0  0  0  0
    6.1127   -3.7552    0.0000 C   0  0  0  0  0  0  0  0  0  0  0  0
    5.9411   -4.5622    0.0000 C   0  0  0  0  0  0  0  0  0  0  0  0
    5.1565   -4.8172    0.0000 C   0  0  0  0  0  0  0  0  0  0  0  0
    4.5434   -4.2651    0.0000 C   0  0  0  0  0  0  0  0  0  0  0  0
    6.5542   -5.1143    0.0000 N   0  0  0  0  0  0  0  0  0  0  0  0
  1  2  2  0  0  0  0
  2  3  1  0  0  0  0
  3  4  2  0  0  0  0
  4  5  1  0  0  0  0
  5  6  2  0  0  0  0
  1  6  1  0  0  0  0
  4  7  1  0  0  0  0
  7  8  1  0  0  0  0
  8  9  2  0  0  0  0
  9 10  1  0  0  0  0
 10 11  2  0  0  0  0
  7 11  1  0  0  0  0
  8 12  1  0  0  0  0
 12 13  1  0  0  0  0
 13 14  2  0  0  0  0
 13 15  2  0  0  0  0
 13 16  1  0  0  0  0
 16 17  2  0  0  0  0
 17 18  1  0  0  0  0
 18 19  2  0  0  0  0
 19 20  1  0  0  0  0
 20 21  2  0  0  0  0
 16 21  1  0  0  0  0
 19 22  1  0  0  0  0
M  END
> <Molar mass [g/mol] [MProp:scalar:double]>
314.36

> <Exact mass [Da] [MProp:scalar:double]>
314.083746881

> <Formula>
C15H14N4O2S

> <Composition>
C (57.31%), H (4.49%), N (17.82%), O (10.18%), S (10.20%)

> <Lipinski's rule of five [MProp:scalar:boolean]>
true

> <Atom count [MProp:scalar:integer]>
36

> <Heavy atom count [MProp:scalar:integer]>
22

> <Asymmetric atom count [MProp:scalar:integer]>
0

> <Rotatable bond count [MProp:scalar:integer]>
3

> <Ring count [MProp:scalar:integer]>
3

> <Aromatic ring count [MProp:scalar:integer]>
3

> <Hetero ring count [MProp:scalar:integer]>
1

> <FSP3 [MProp:scalar:double]>
0.0

> <Hydrogen bond donor count [MProp:scalar:integer]>
2

> <Hydrogen bond acceptor count [MProp:scalar:integer]>
4

> <Formal charge [MProp:scalar:integer]>
0

> <Topological polar surface area [A^2] [MProp:scalar:double]>
90.01

> <Polarizability [A^3] [MProp:scalar:double]>
33.38

> <Molar refractivity [cm^3/mol] [MProp:scalar:double]>
85.21

> <Van der Waals volume [A^3] [MProp:scalar:double]>
261.56

> <Minimum projection area [A^2] [MProp:scalar:double]>
46.97

> <Maximum projection area [A^2] [MProp:scalar:double]>
81.96

> <Minimum projection radius [A] [MProp:scalar:double]>
4.78

> <Maximum projection radius [A] [MProp:scalar:double]>
7.48

> <Van der Waals surface area [A^2] [MProp:scalar:double]>
417.51

> <Solvent accessible surface area [A^2] [MProp:scalar:double]>
494.34

> <Strongest acidic pKa [MProp:scalar:double]>
6.32

> <Strongest basic pKa [MProp:scalar:double]>
2.44

> <Isoelectric point [MProp:scalar:double]>
4.43

> <Intrinsic solubility [logS] [MProp:scalar:double]>
-3.77

> <Solubility category>
Moderate

> <logP [MProp:scalar:double]>
1.81

> <logD_PH0 [MProp:scalar:double]>
-2.21

> <logD_PH1 [MProp:scalar:double]>
-0.49

> <logD_PH2 [MProp:scalar:double]>
1.06

> <logD_PH3 [MProp:scalar:double]>
1.7

> <logD_PH4 [MProp:scalar:double]>
1.79

> <logD_PH5 [MProp:scalar:double]>
1.79

> <logD_PH6 [MProp:scalar:double]>
1.66

> <logD_PH7 [MProp:scalar:double]>
1.23

> <logD_PH8 [MProp:scalar:double]>
0.93

> <logD_PH9 [MProp:scalar:double]>
0.87

> <logD_PH10 [MProp:scalar:double]>
0.86

> <logD_PH11 [MProp:scalar:double]>
0.86

> <logD_PH12 [MProp:scalar:double]>
0.86

> <logD_PH13 [MProp:scalar:double]>
0.86

> <logD_PH14 [MProp:scalar:double]>
0.86

> <HLB [MProp:scalar:double]>
12.01

> <IUPAC name>
4-amino-N-(1-phenyl-1H-pyrazol-5-yl)benzene-1-sulfonamide

> <SMILES>
NC1=CC=C(C=C1)S(=O)(=O)NC1=CC=NN1C1=CC=CC=C1

> <InChI>
InChI=1S/C15H14N4O2S/c16-12-6-8-14(9-7-12)22(20,21)18-15-10-11-17-19(15)13-4-2-1-3-5-13/h1-11,18H,16H2

> <InChIKey>
QWCJHSGMANYXCW-UHFFFAOYSA-N

> <Traditional name>
sulfaphenazole

> <Common names>
S0758_sigma; UC166_sigma; depocid; depotsulfonamide; eftolon; firmazolo; inamil; isarol; isarol v; merian; microtan pirazolo; orisul; orisulf; paidazolo; phenylsulfapyrazole; plisulfan; prestwick_454; raziosulfa; solfafenazolo; sulfabid; sulfafenazol; sulfafenazol [inn-spanish]; sulfafenazolo; sulfaphenazol; sulfaphenazol [inn-french]; sulfaphenazole; sulfaphenazole (jan/inn); sulfaphenazole (substance); sulfaphenazolum; sulfaphenazon; sulfaphenylpipazol; sulfaphenylpyrazol; sulfaphenylpyrazole; sulphaphenazole; sulphenazole; unii-0J8L4V3F81; 磺胺苯吡唑

> <CAS Registry Numbers(R)>
526-08-9, 1420043-53-3

$$$$
Sulfapyridine
  Mrv2222 01232613222D          

 17 18  0  0  0  0            999 V2000
    2.8579   -3.3000    0.0000 C   0  0  0  0  0  0  0  0  0  0  0  0
    2.1434   -3.7125    0.0000 C   0  0  0  0  0  0  0  0  0  0  0  0
    1.4289   -3.3000    0.0000 C   0  0  0  0  0  0  0  0  0  0  0  0
    1.4289   -2.4750    0.0000 N   0  0  0  0  0  0  0  0  0  0  0  0
    2.1434   -2.0625    0.0000 C   0  0  0  0  0  0  0  0  0  0  0  0
    2.8579   -2.4750    0.0000 C   0  0  0  0  0  0  0  0  0  0  0  0
    2.1434   -1.2375    0.0000 N   0  0  0  0  0  0  0  0  0  0  0  0
    2.8579   -0.8250    0.0000 S   0  0  0  0  0  0  0  0  0  0  0  0
    3.2704   -1.5395    0.0000 O   0  0  0  0  0  0  0  0  0  0  0  0
    2.4454   -0.1105    0.0000 O   0  0  0  0  0  0  0  0  0  0  0  0
    3.5724   -0.4125    0.0000 C   0  0  0  0  0  0  0  0  0  0  0  0
    3.5724    0.4125    0.0000 C   0  0  0  0  0  0  0  0  0  0  0  0
    4.2868    0.8250    0.0000 C   0  0  0  0  0  0  0  0  0  0  0  0
    5.0013    0.4125    0.0000 C   0  0  0  0  0  0  0  0  0  0  0  0
    5.0013   -0.4125    0.0000 C   0  0  0  0  0  0  0  0  0  0  0  0
    4.2868   -0.8250    0.0000 C   0  0  0  0  0  0  0  0  0  0  0  0
    5.7158    0.8250    0.0000 N   0  0  0  0  0  0  0  0  0  0  0  0
  1  2  2  0  0  0  0
  2  3  1  0  0  0  0
  3  4  2  0  0  0  0
  4  5  1  0  0  0  0
  5  6  2  0  0  0  0
  1  6  1  0  0  0  0
  5  7  1  0  0  0  0
  7  8  1  0  0  0  0
  8  9  2  0  0  0  0
  8 10  2  0  0  0  0
  8 11  1  0  0  0  0
 11 12  2  0  0  0  0
 12 13  1  0  0  0  0
 13 14  2  0  0  0  0
 14 15  1  0  0  0  0
 15 16  2  0  0  0  0
 11 16  1  0  0  0  0
 14 17  1  0  0  0  0
M  END
> <Molar mass [g/mol] [MProp:scalar:double]>
249.29

> <Exact mass [Da] [MProp:scalar:double]>
249.05719778

> <Formula>
C11H11N3O2S

> <Composition>
C (53.00%), H (4.45%), N (16.86%), O (12.84%), S (12.86%)

> <Lipinski's rule of five [MProp:scalar:boolean]>
true

> <Atom count [MProp:scalar:integer]>
28

> <Heavy atom count [MProp:scalar:integer]>
17

> <Asymmetric atom count [MProp:scalar:integer]>
0

> <Rotatable bond count [MProp:scalar:integer]>
2

> <Ring count [MProp:scalar:integer]>
2

> <Aromatic ring count [MProp:scalar:integer]>
2

> <Hetero ring count [MProp:scalar:integer]>
1

> <FSP3 [MProp:scalar:double]>
0.0

> <Hydrogen bond donor count [MProp:scalar:integer]>
2

> <Hydrogen bond acceptor count [MProp:scalar:integer]>
4

> <Formal charge [MProp:scalar:integer]>
0

> <Topological polar surface area [A^2] [MProp:scalar:double]>
85.08

> <Polarizability [A^3] [MProp:scalar:double]>
25.43

> <Molar refractivity [cm^3/mol] [MProp:scalar:double]>
65.75

> <Van der Waals volume [A^3] [MProp:scalar:double]>
206.87

> <Minimum projection area [A^2] [MProp:scalar:double]>
47.04

> <Maximum projection area [A^2] [MProp:scalar:double]>
65.46

> <Minimum projection radius [A] [MProp:scalar:double]>
4.81

> <Maximum projection radius [A] [MProp:scalar:double]>
5.3

> <Van der Waals surface area [A^2] [MProp:scalar:double]>
333.38

> <Solvent accessible surface area [A^2] [MProp:scalar:double]>
434.39

> <Strongest acidic pKa [MProp:scalar:double]>
6.24

> <Strongest basic pKa [MProp:scalar:double]>
2.14

> <Isoelectric point [MProp:scalar:double]>
4.19

> <Intrinsic solubility [logS] [MProp:scalar:double]>
-2.47

> <Solubility category>
High

> <logP [MProp:scalar:double]>
1.01

> <logD_PH0 [MProp:scalar:double]>
-1.43

> <logD_PH1 [MProp:scalar:double]>
-0.23

> <logD_PH2 [MProp:scalar:double]>
0.63

> <logD_PH3 [MProp:scalar:double]>
0.95

> <logD_PH4 [MProp:scalar:double]>
1.0

> <logD_PH5 [MProp:scalar:double]>
0.99

> <logD_PH6 [MProp:scalar:double]>
0.84

> <logD_PH7 [MProp:scalar:double]>
0.4

> <logD_PH8 [MProp:scalar:double]>
0.12

> <logD_PH9 [MProp:scalar:double]>
0.07

> <logD_PH10 [MProp:scalar:double]>
0.07

> <logD_PH11 [MProp:scalar:double]>
0.07

> <logD_PH12 [MProp:scalar:double]>
0.07

> <logD_PH13 [MProp:scalar:double]>
0.07

> <logD_PH14 [MProp:scalar:double]>
0.07

> <HLB [MProp:scalar:double]>
13.07

> <IUPAC name>
4-amino-N-(pyridin-2-yl)benzene-1-sulfonamide

> <SMILES>
NC1=CC=C(C=C1)S(=O)(=O)NC1=CC=CC=N1

> <InChI>
InChI=1S/C11H11N3O2S/c12-9-4-6-10(7-5-9)17(15,16)14-11-3-1-2-8-13-11/h1-8H,12H2,(H,13,14)

> <InChIKey>
GECHUMIMRBOMGK-UHFFFAOYSA-N

> <Traditional name>
sulfapyridine

> <Common names>
2-sulfanilyl aminopyridine; 2-sulfapyridine; 4-(2-pyridinylsulfonyl)aniline; N(1)-pyridylsulfanilamide; N(sup1)-pyridylsulfanilamide; adiplon; coccoclase; dagenan; eubasin; eubasinum; haptocil; piridazol; plurazol; pyriamid; pyridazol; relbapiridina; ronin; septipulmon; solfapiridina; streptosilpyridine; sulfapiridina; sulfapyridine; sulfapyridine (substance); sulfapyridine preparation; sulfapyridinum; sulfidin; sulfidine; sulphapyridin; sulphapyridine; thioseptal; trianon; 磺胺吡啶

> <CAS Registry Numbers(R)>
144-83-2

$$$$
Sulfaquinoxaline
  Mrv2222 01232613222D          

 21 23  0  0  0  0            999 V2000
   -0.7145   -0.4125    0.0000 C   0  0  0  0  0  0  0  0  0  0  0  0
   -0.7145   -1.2375    0.0000 C   0  0  0  0  0  0  0  0  0  0  0  0
    0.0000   -1.6500    0.0000 C   0  0  0  0  0  0  0  0  0  0  0  0
    0.7145   -1.2375    0.0000 C   0  0  0  0  0  0  0  0  0  0  0  0
    0.7145   -0.4125    0.0000 C   0  0  0  0  0  0  0  0  0  0  0  0
    0.0000    0.0000    0.0000 C   0  0  0  0  0  0  0  0  0  0  0  0
    1.4289    0.0000    0.0000 N   0  0  0  0  0  0  0  0  0  0  0  0
    2.1434   -0.4125    0.0000 C   0  0  0  0  0  0  0  0  0  0  0  0
    2.1434   -1.2375    0.0000 C   0  0  0  0  0  0  0  0  0  0  0  0
    1.4289   -1.6500    0.0000 N   0  0  0  0  0  0  0  0  0  0  0  0
    2.8579   -1.6500    0.0000 N   0  0  0  0  0  0  0  0  0  0  0  0
    2.8579   -2.4750    0.0000 S   0  0  0  0  0  0  0  0  0  0  0  0
    2.0329   -2.4750    0.0000 O   0  0  0  0  0  0  0  0  0  0  0  0
    3.6829   -2.4750    0.0000 O   0  0  0  0  0  0  0  0  0  0  0  0
    2.8579   -3.3000    0.0000 C   0  0  0  0  0  0  0  0  0  0  0  0
    3.5724   -3.7125    0.0000 C   0  0  0  0  0  0  0  0  0  0  0  0
    3.5724   -4.5375    0.0000 C   0  0  0  0  0  0  0  0  0  0  0  0
    2.8579   -4.9500    0.0000 C   0  0  0  0  0  0  0  0  0  0  0  0
    2.1434   -4.5375    0.0000 C   0  0  0  0  0  0  0  0  0  0  0  0
    2.1434   -3.7125    0.0000 C   0  0  0  0  0  0  0  0  0  0  0  0
    2.8579   -5.7750    0.0000 N   0  0  0  0  0  0  0  0  0  0  0  0
  1  2  1  0  0  0  0
  2  3  2  0  0  0  0
  3  4  1  0  0  0  0
  4  5  1  0  0  0  0
  5  6  1  0  0  0  0
  1  6  2  0  0  0  0
  5  7  2  0  0  0  0
  7  8  1  0  0  0  0
  8  9  2  0  0  0  0
  9 10  1  0  0  0  0
  4 10  2  0  0  0  0
  9 11  1  0  0  0  0
 11 12  1  0  0  0  0
 12 13  2  0  0  0  0
 12 14  2  0  0  0  0
 12 15  1  0  0  0  0
 15 16  2  0  0  0  0
 16 17  1  0  0  0  0
 17 18  2  0  0  0  0
 18 19  1  0  0  0  0
 19 20  2  0  0  0  0
 15 20  1  0  0  0  0
 18 21  1  0  0  0  0
M  END
> <Molar mass [g/mol] [MProp:scalar:double]>
300.34

> <Exact mass [Da] [MProp:scalar:double]>
300.068096816

> <Formula>
C14H12N4O2S

> <Composition>
C (55.99%), H (4.03%), N (18.66%), O (10.65%), S (10.67%)

> <Lipinski's rule of five [MProp:scalar:boolean]>
true

> <Atom count [MProp:scalar:integer]>
33

> <Heavy atom count [MProp:scalar:integer]>
21

> <Asymmetric atom count [MProp:scalar:integer]>
0

> <Rotatable bond count [MProp:scalar:integer]>
2

> <Ring count [MProp:scalar:integer]>
3

> <Aromatic ring count [MProp:scalar:integer]>
3

> <Hetero ring count [MProp:scalar:integer]>
1

> <FSP3 [MProp:scalar:double]>
0.0

> <Hydrogen bond donor count [MProp:scalar:integer]>
2

> <Hydrogen bond acceptor count [MProp:scalar:integer]>
5

> <Formal charge [MProp:scalar:integer]>
0

> <Topological polar surface area [A^2] [MProp:scalar:double]>
97.97

> <Polarizability [A^3] [MProp:scalar:double]>
32.04

> <Molar refractivity [cm^3/mol] [MProp:scalar:double]>
79.3

> <Van der Waals volume [A^3] [MProp:scalar:double]>
245.66

> <Minimum projection area [A^2] [MProp:scalar:double]>
50.32

> <Maximum projection area [A^2] [MProp:scalar:double]>
78.71

> <Minimum projection radius [A] [MProp:scalar:double]>
4.8

> <Maximum projection radius [A] [MProp:scalar:double]>
6.65

> <Van der Waals surface area [A^2] [MProp:scalar:double]>
389.15

> <Solvent accessible surface area [A^2] [MProp:scalar:double]>
483.66

> <Strongest acidic pKa [MProp:scalar:double]>
6.79

> <Strongest basic pKa [MProp:scalar:double]>
2.13

> <Isoelectric point [MProp:scalar:double]>
4.46

> <Intrinsic solubility [logS] [MProp:scalar:double]>
-2.92

> <Solubility category>
High

> <logP [MProp:scalar:double]>
1.55

> <logD_PH0 [MProp:scalar:double]>
-0.62

> <logD_PH1 [MProp:scalar:double]>
0.38

> <logD_PH2 [MProp:scalar:double]>
1.18

> <logD_PH3 [MProp:scalar:double]>
1.5

> <logD_PH4 [MProp:scalar:double]>
1.55

> <logD_PH5 [MProp:scalar:double]>
1.55

> <logD_PH6 [MProp:scalar:double]>
1.49

> <logD_PH7 [MProp:scalar:double]>
1.21

> <logD_PH8 [MProp:scalar:double]>
0.77

> <logD_PH9 [MProp:scalar:double]>
0.63

> <logD_PH10 [MProp:scalar:double]>
0.61

> <logD_PH11 [MProp:scalar:double]>
0.61

> <logD_PH12 [MProp:scalar:double]>
0.61

> <logD_PH13 [MProp:scalar:double]>
0.61

> <logD_PH14 [MProp:scalar:double]>
0.61

> <HLB [MProp:scalar:double]>
12.71

> <IUPAC name>
4-amino-N-(quinoxalin-2-yl)benzene-1-sulfonamide

> <SMILES>
NC1=CC=C(C=C1)S(=O)(=O)NC1=CN=C2C=CC=CC2=N1

> <InChI>
InChI=1S/C14H12N4O2S/c15-10-5-7-11(8-6-10)21(19,20)18-14-9-16-12-3-1-2-4-13(12)17-14/h1-9H,15H2,(H,17,18)

> <InChIKey>
NHZLNPMOSADWGC-UHFFFAOYSA-N

> <Traditional name>
sulfaquinoxaline

> <Common names>
sulfaquinoxaline; 磺胺喹沙啉

> <CAS Registry Numbers(R)>
59-40-5

$$$$
Sulfathiazole
  Mrv2222 01232613222D          

 16 17  0  0  0  0            999 V2000
   -3.5724    6.7661    0.0000 C   0  0  0  0  0  0  0  0  0  0  0  0
   -2.8579    6.3536    0.0000 C   0  0  0  0  0  0  0  0  0  0  0  0
   -2.8579    5.5286    0.0000 C   0  0  0  0  0  0  0  0  0  0  0  0
   -3.5724    5.1161    0.0000 C   0  0  0  0  0  0  0  0  0  0  0  0
   -4.2868    5.5286    0.0000 C   0  0  0  0  0  0  0  0  0  0  0  0
   -4.2868    6.3536    0.0000 C   0  0  0  0  0  0  0  0  0  0  0  0
   -5.0013    6.7661    0.0000 N   0  0  0  0  0  0  0  0  0  0  0  0
   -2.1434    5.1161    0.0000 S   0  0  0  0  0  0  0  0  0  0  0  0
   -2.5559    4.4016    0.0000 O   0  0  0  0  0  0  0  0  0  0  0  0
   -1.7309    5.8305    0.0000 O   0  0  0  0  0  0  0  0  0  0  0  0
   -1.4289    4.7036    0.0000 N   0  0  0  0  0  0  0  0  0  0  0  0
   -1.4289    3.8786    0.0000 C   0  0  0  0  0  0  0  0  0  0  0  0
   -0.7615    3.3937    0.0000 N   0  0  0  0  0  0  0  0  0  0  0  0
   -1.0164    2.6090    0.0000 C   0  0  0  0  0  0  0  0  0  0  0  0
   -1.8414    2.6090    0.0000 C   0  0  0  0  0  0  0  0  0  0  0  0
   -2.0964    3.3937    0.0000 S   0  0  0  0  0  0  0  0  0  0  0  0
  1  2  2  0  0  0  0
  2  3  1  0  0  0  0
  3  4  2  0  0  0  0
  4  5  1  0  0  0  0
  5  6  2  0  0  0  0
  1  6  1  0  0  0  0
  6  7  1  0  0  0  0
  3  8  1  0  0  0  0
  8  9  2  0  0  0  0
  8 10  2  0  0  0  0
  8 11  1  0  0  0  0
 11 12  1  0  0  0  0
 12 13  2  0  0  0  0
 13 14  1  0  0  0  0
 14 15  2  0  0  0  0
 15 16  1  0  0  0  0
 12 16  1  0  0  0  0
M  END
> <Molar mass [g/mol] [MProp:scalar:double]>
255.31

> <Exact mass [Da] [MProp:scalar:double]>
255.01361889

> <Formula>
C9H9N3O2S2

> <Composition>
C (42.34%), H (3.55%), N (16.46%), O (12.53%), S (25.11%)

> <Lipinski's rule of five [MProp:scalar:boolean]>
true

> <Atom count [MProp:scalar:integer]>
25

> <Heavy atom count [MProp:scalar:integer]>
16

> <Asymmetric atom count [MProp:scalar:integer]>
0

> <Rotatable bond count [MProp:scalar:integer]>
2

> <Ring count [MProp:scalar:integer]>
2

> <Aromatic ring count [MProp:scalar:integer]>
2

> <Hetero ring count [MProp:scalar:integer]>
1

> <FSP3 [MProp:scalar:double]>
0.0

> <Hydrogen bond donor count [MProp:scalar:integer]>
2

> <Hydrogen bond acceptor count [MProp:scalar:integer]>
4

> <Formal charge [MProp:scalar:integer]>
0

> <Topological polar surface area [A^2] [MProp:scalar:double]>
85.08

> <Polarizability [A^3] [MProp:scalar:double]>
24.2

> <Molar refractivity [cm^3/mol] [MProp:scalar:double]>
62.27

> <Van der Waals volume [A^3] [MProp:scalar:double]>
198.32

> <Minimum projection area [A^2] [MProp:scalar:double]>
41.16

> <Maximum projection area [A^2] [MProp:scalar:double]>
65.23

> <Minimum projection radius [A] [MProp:scalar:double]>
4.48

> <Maximum projection radius [A] [MProp:scalar:double]>
5.81

> <Van der Waals surface area [A^2] [MProp:scalar:double]>
313.38

> <Solvent accessible surface area [A^2] [MProp:scalar:double]>
419.59

> <Strongest acidic pKa [MProp:scalar:double]>
5.73

> <Strongest basic pKa [MProp:scalar:double]>
2.04

> <Isoelectric point [MProp:scalar:double]>
3.88

> <Intrinsic solubility [logS] [MProp:scalar:double]>
-2.67

> <Solubility category>
High

> <logP [MProp:scalar:double]>
0.98

> <logD_PH0 [MProp:scalar:double]>
-1.26

> <logD_PH1 [MProp:scalar:double]>
-0.15

> <logD_PH2 [MProp:scalar:double]>
0.65

> <logD_PH3 [MProp:scalar:double]>
0.93

> <logD_PH4 [MProp:scalar:double]>
0.96

> <logD_PH5 [MProp:scalar:double]>
0.91

> <logD_PH6 [MProp:scalar:double]>
0.6

> <logD_PH7 [MProp:scalar:double]>
0.18

> <logD_PH8 [MProp:scalar:double]>
0.05

> <logD_PH9 [MProp:scalar:double]>
0.03

> <logD_PH10 [MProp:scalar:double]>
0.03

> <logD_PH11 [MProp:scalar:double]>
0.03

> <logD_PH12 [MProp:scalar:double]>
0.03

> <logD_PH13 [MProp:scalar:double]>
0.03

> <logD_PH14 [MProp:scalar:double]>
0.03

> <HLB [MProp:scalar:double]>
14.29

> <IUPAC name>
4-amino-N-(1,3-thiazol-2-yl)benzene-1-sulfonamide

> <SMILES>
NC1=CC=C(C=C1)S(=O)(=O)NC1=NC=CS1

> <InChI>
InChI=1S/C9H9N3O2S2/c10-7-1-3-8(4-2-7)16(13,14)12-9-11-5-6-15-9/h1-6H,10H2,(H,11,12)

> <InChIKey>
JNMRHUJNCSQMMB-UHFFFAOYSA-N

> <Traditional name>
thiazamide

> <Common names>
2-sulfonamidothiazole; alphadol; azoquimiol; azoseptale; caswell no. 809B; ccris 765; cerazol (suspension); cerazole; cibazol; coco-thiazole; duatok; dulana; eleudron; epa pesticide chemical code 077903; estafilol; formosulfathiazole; monosodium salt sulfathiazole; neo-strepsan; neostrepsan; norsulfasol; norsulfazol; norsulfazole; norsulfazolum; planomide; poliseptil; sanotiazol; septozol; sodium sulfathiazole; solfatiazolo; streptosilthiazole; sulfamul; sulfathiazol; sulfathiazole; sulfathiazole (product); sulfathiazole (substance); sulfathiazole preparation; sulfathiazole, monosodium salt; sulfathiazolum; sulfathiazone; sulfatiazol; sulfocerol; sulphathiazole; sulzol; thiacoccine; thiazamide; thiozamide; usaf SN-9; wintrazole

> <CAS Registry Numbers(R)>
72-14-0

$$$$
Sulfisoxazole
  Mrv2222 01232613222D          

 18 19  0  0  0  0            999 V2000
    2.0367   -1.2991    0.0000 C   0  0  0  0  0  0  0  0  0  0  0  0
    2.0367   -2.1241    0.0000 C   0  0  0  0  0  0  0  0  0  0  0  0
    2.7041   -2.6090    0.0000 C   0  0  0  0  0  0  0  0  0  0  0  0
    2.4492   -3.3937    0.0000 O   0  0  0  0  0  0  0  0  0  0  0  0
    1.6242   -3.3937    0.0000 N   0  0  0  0  0  0  0  0  0  0  0  0
    1.3693   -2.6090    0.0000 C   0  0  0  0  0  0  0  0  0  0  0  0
    0.5846   -2.3541    0.0000 C   0  0  0  0  0  0  0  0  0  0  0  0
    3.4888   -2.3541    0.0000 N   0  0  0  0  0  0  0  0  0  0  0  0
    4.1019   -2.9061    0.0000 S   0  0  0  0  0  0  0  0  0  0  0  0
    3.5498   -3.5192    0.0000 O   0  0  0  0  0  0  0  0  0  0  0  0
    4.6539   -2.2930    0.0000 O   0  0  0  0  0  0  0  0  0  0  0  0
    4.7150   -3.4582    0.0000 C   0  0  0  0  0  0  0  0  0  0  0  0
    5.4996   -3.2032    0.0000 C   0  0  0  0  0  0  0  0  0  0  0  0
    6.1127   -3.7552    0.0000 C   0  0  0  0  0  0  0  0  0  0  0  0
    5.9411   -4.5622    0.0000 C   0  0  0  0  0  0  0  0  0  0  0  0
    5.1565   -4.8172    0.0000 C   0  0  0  0  0  0  0  0  0  0  0  0
    4.5434   -4.2651    0.0000 C   0  0  0  0  0  0  0  0  0  0  0  0
    6.5542   -5.1143    0.0000 N   0  0  0  0  0  0  0  0  0  0  0  0
  1  2  1  0  0  0  0
  2  3  2  0  0  0  0
  3  4  1  0  0  0  0
  4  5  1  0  0  0  0
  5  6  2  0  0  0  0
  2  6  1  0  0  0  0
  6  7  1  0  0  0  0
  3  8  1  0  0  0  0
  8  9  1  0  0  0  0
  9 10  2  0  0  0  0
  9 11  2  0  0  0  0
  9 12  1  0  0  0  0
 12 13  2  0  0  0  0
 13 14  1  0  0  0  0
 14 15  2  0  0  0  0
 15 16  1  0  0  0  0
 16 17  2  0  0  0  0
 12 17  1  0  0  0  0
 15 18  1  0  0  0  0
M  END
> <Molar mass [g/mol] [MProp:scalar:double]>
267.3

> <Exact mass [Da] [MProp:scalar:double]>
267.067762465

> <Formula>
C11H13N3O3S

> <Composition>
C (49.43%), H (4.90%), N (15.72%), O (17.96%), S (11.99%)

> <Lipinski's rule of five [MProp:scalar:boolean]>
true

> <Atom count [MProp:scalar:integer]>
31

> <Heavy atom count [MProp:scalar:integer]>
18

> <Asymmetric atom count [MProp:scalar:integer]>
0

> <Rotatable bond count [MProp:scalar:integer]>
2

> <Ring count [MProp:scalar:integer]>
2

> <Aromatic ring count [MProp:scalar:integer]>
2

> <Hetero ring count [MProp:scalar:integer]>
1

> <FSP3 [MProp:scalar:double]>
0.18

> <Hydrogen bond donor count [MProp:scalar:integer]>
2

> <Hydrogen bond acceptor count [MProp:scalar:integer]>
4

> <Formal charge [MProp:scalar:integer]>
0

> <Topological polar surface area [A^2] [MProp:scalar:double]>
98.22

> <Polarizability [A^3] [MProp:scalar:double]>
25.9

> <Molar refractivity [cm^3/mol] [MProp:scalar:double]>
67.92

> <Van der Waals volume [A^3] [MProp:scalar:double]>
221.51

> <Minimum projection area [A^2] [MProp:scalar:double]>
44.22

> <Maximum projection area [A^2] [MProp:scalar:double]>
69.66

> <Minimum projection radius [A] [MProp:scalar:double]>
4.71

> <Maximum projection radius [A] [MProp:scalar:double]>
6.81

> <Van der Waals surface area [A^2] [MProp:scalar:double]>
369.77

> <Solvent accessible surface area [A^2] [MProp:scalar:double]>
475.08

> <Strongest acidic pKa [MProp:scalar:double]>
4.81

> <Strongest basic pKa [MProp:scalar:double]>
2.17

> <Isoelectric point [MProp:scalar:double]>
3.46

> <Intrinsic solubility [logS] [MProp:scalar:double]>
-2.39

> <Solubility category>
High

> <logP [MProp:scalar:double]>
0.73

> <logD_PH0 [MProp:scalar:double]>
-2.67

> <logD_PH1 [MProp:scalar:double]>
-0.98

> <logD_PH2 [MProp:scalar:double]>
0.28

> <logD_PH3 [MProp:scalar:double]>
0.66

> <logD_PH4 [MProp:scalar:double]>
0.67

> <logD_PH5 [MProp:scalar:double]>
0.39

> <logD_PH6 [MProp:scalar:double]>
-0.05

> <logD_PH7 [MProp:scalar:double]>
-0.19

> <logD_PH8 [MProp:scalar:double]>
-0.21

> <logD_PH9 [MProp:scalar:double]>
-0.21

> <logD_PH10 [MProp:scalar:double]>
-0.21

> <logD_PH11 [MProp:scalar:double]>
-0.21

> <logD_PH12 [MProp:scalar:double]>
-0.21

> <logD_PH13 [MProp:scalar:double]>
-0.21

> <logD_PH14 [MProp:scalar:double]>
-0.21

> <HLB [MProp:scalar:double]>
12.94

> <IUPAC name>
4-amino-N-(3,4-dimethyl-1,2-oxazol-5-yl)benzene-1-sulfonamide

> <SMILES>
CC1=NOC(NS(=O)(=O)C2=CC=C(N)C=C2)=C1C

> <InChI>
InChI=1S/C11H13N3O3S/c1-7-8(2)13-17-11(7)14-18(15,16)10-5-3-9(12)4-6-10/h3-6,14H,12H2,1-2H3

> <InChIKey>
NHUHCSRWZMLRLA-UHFFFAOYSA-N

> <Traditional name>
sulfisoxazole

> <Common names>
G-sox; J-sul; TL azole; TL-azole; V sul; V-sul; accuzole; alphazole; amidoxal; ammonium salt sulfisoxazole; astrazolo; azo gantrisin; azosulfizin; bactesulf; barazae; ccris 568; chemouag; cosoxazole; diolamine, sulfisoxazole; dorsulfan; dorsulfan warthausen; entusil; entusul; fna brand of sulfisoxazole; ganda; gantrisin; gantrisine; gantrisona; gantrosan; isoxamin; koro-sulf; monolithium salt sulfisoxazole; monosodium salt sulfisoxazole; neazolin; neoxazoi; neoxazol; norilgan-S; novazolo; novosaxazole; pancid; pediatric, gantrisin; renosulfan; resoxol; roche brand of sulfisoxazole; roche brand of sulfisoxazole acetate; roche brand of sulfisoxazole diolamine; roxosul; roxosul tablets; roxoxol; saxosozine; sk-soxazole; sodizole; solfafurazolo; sosol; soxamide; soxazole; soxisol; soxitabs; soxomide; stansin; sulbio; sulfadimethylisoxazole; sulfafurazol; sulfafurazol fna; sulfafurazole; sulfafurazole diolamine; sulfafurazolum; sulfagan; sulfagen; sulfaisoxazole; sulfalar; sulfapolar; sulfasan; sulfasol; sulfasoxazole; sulfasoxizole; sulfazin; sulfisin; sulfisonazole; sulfisoxasole; sulfisoxazol; sulfisoxazole; sulfisoxazole (product); sulfisoxazole (substance); sulfisoxazole dialamine; sulfisoxazole diolamine; sulfisoxazole diolamine (substance); sulfisoxazole diolamine preparation; sulfisoxazole preparation; sulfisoxazole roche brand; sulfisoxazolum; sulfizin; sulfizol; sulfizole; sulfofurazole; suloxsol; sulphadimethylisoxazole; sulphafuraz; sulphafurazol; sulphafurazole; sulphafurazolum; sulphaisoxazole; sulphisoxazol; sulphofurazole; sulsoxin; thiasin; tl-azole; triammonium salt sulfisoxazole; unisulf; urisoxin; uritrisin; urogan; vagilia; vangard brand of sulfisoxazole; zenith brand of sulfisoxazole

> <CAS Registry Numbers(R)>
127-69-5

$$$$
Demeclocycline
  Mrv2222 01232613222D          

 32 35  0  0  1  0            999 V2000
    2.1434   -1.2375    0.0000 C    0  0  0  0  0  0  0  0  0  0  0  0
    2.8579   -1.6500    0.0000 N    0  0  0  0  0  0  0  0  0  0  0  0
    3.5724   -1.2375    0.0000 C    0  0  0  0  0  0  0  0  0  0  0  0
    2.8579   -2.4750    0.0000 C    0  0  1  0  0  0  0  0  0  0  0  0
    3.5724   -2.8875    0.0000 C    0  0  2  0  0  0  0  0  0  0  0  0
    4.2868   -2.4750    0.0000 C    0  0  0  0  0  0  0  0  0  0  0  0
    5.0013   -2.8875    0.0000 C    0  0  2  0  0  0  0  0  0  0  0  0
    5.7158   -2.4750    0.0000 C    0  0  1  0  0  0  0  0  0  0  0  0
    6.4302   -2.8875    0.0000 C    0  0  0  0  0  0  0  0  0  0  0  0
    7.1447   -2.4750    0.0000 C    0  0  0  0  0  0  0  0  0  0  0  0
    7.8592   -2.8875    0.0000 C    0  0  0  0  0  0  0  0  0  0  0  0
    7.8592   -3.7125    0.0000 C    0  0  0  0  0  0  0  0  0  0  0  0
    7.1447   -4.1250    0.0000 C    0  0  0  0  0  0  0  0  0  0  0  0
    6.4302   -3.7125    0.0000 C    0  0  0  0  0  0  0  0  0  0  0  0
    5.7158   -4.1250    0.0000 C    0  0  0  0  0  0  0  0  0  0  0  0
    5.0013   -3.7125    0.0000 C    0  0  0  0  0  0  0  0  0  0  0  0
    4.2868   -4.1250    0.0000 C    0  0  0  0  0  0  0  0  0  0  0  0
    4.2868   -4.9500    0.0000 O    0  0  0  0  0  0  0  0  0  0  0  0
    3.5724   -3.7125    0.0000 C    0  0  2  0  0  0  0  0  0  0  0  0
    2.8579   -4.1250    0.0000 C    0  0  0  0  0  0  0  0  0  0  0  0
    2.1434   -3.7125    0.0000 C    0  0  0  0  0  0  0  0  0  0  0  0
    2.1434   -2.8875    0.0000 C    0  0  0  0  0  0  0  0  0  0  0  0
    1.4289   -2.4750    0.0000 O    0  0  0  0  0  0  0  0  0  0  0  0
    1.4289   -4.1250    0.0000 C    0  0  0  0  0  0  0  0  0  0  0  0
    1.4289   -4.9500    0.0000 O    0  0  0  0  0  0  0  0  0  0  0  0
    0.7145   -3.7125    0.0000 N    0  0  0  0  0  0  0  0  0  0  0  0
    2.8579   -4.9500    0.0000 O    0  0  0  0  0  0  0  0  0  0  0  0
    3.5724   -4.5375    0.0000 O    0  0  0  0  0  0  0  0  0  0  0  0
    5.7158   -4.9500    0.0000 O    0  0  0  0  0  0  0  0  0  0  0  0
    7.1447   -4.9500    0.0000 O    0  0  0  0  0  0  0  0  0  0  0  0
    7.1447   -1.6500    0.0000 Cl   0  0  0  0  0  0  0  0  0  0  0  0
    5.7158   -1.6500    0.0000 O    0  0  0  0  0  0  0  0  0  0  0  0
  1  2  1  0  0  0  0
  2  3  1  0  0  0  0
  4  2  1  1  0  0  0
  5  4  1  0  0  0  0
  5  6  1  6  0  0  0
  7  6  1  6  0  0  0
  7  8  1  0  0  0  0
  8  9  1  0  0  0  0
  9 10  2  0  0  0  0
 10 11  1  0  0  0  0
 11 12  2  0  0  0  0
 12 13  1  0  0  0  0
 13 14  2  0  0  0  0
  9 14  1  0  0  0  0
 14 15  1  0  0  0  0
 15 16  1  0  0  0  0
  7 16  1  0  0  0  0
 16 17  2  0  0  0  0
 17 18  1  0  0  0  0
 19 17  1  0  0  0  0
  5 19  1  0  0  0  0
 19 20  1  0  0  0  0
 20 21  2  0  0  0  0
 21 22  1  0  0  0  0
  4 22  1  0  0  0  0
 22 23  2  0  0  0  0
 21 24  1  0  0  0  0
 24 25  2  0  0  0  0
 24 26  1  0  0  0  0
 20 27  1  0  0  0  0
 19 28  1  1  0  0  0
 15 29  2  0  0  0  0
 13 30  1  0  0  0  0
 10 31  1  0  0  0  0
  8 32  1  6  0  0  0
M  END
> <Molar mass [g/mol] [MProp:scalar:double]>
464.86

> <Exact mass [Da] [MProp:scalar:double]>
464.0986433

> <Formula>
C21H21ClN2O8

> <Composition>
C (54.26%), H (4.55%), Cl (7.63%), N (6.03%), O (27.53%)

> <Lipinski's rule of five [MProp:scalar:boolean]>
false

> <Atom count [MProp:scalar:integer]>
53

> <Heavy atom count [MProp:scalar:integer]>
32

> <Asymmetric atom count [MProp:scalar:integer]>
5

> <Rotatable bond count [MProp:scalar:integer]>
2

> <Ring count [MProp:scalar:integer]>
4

> <Aromatic ring count [MProp:scalar:integer]>
1

> <Hetero ring count [MProp:scalar:integer]>
0

> <FSP3 [MProp:scalar:double]>
0.38

> <Hydrogen bond donor count [MProp:scalar:integer]>
6

> <Hydrogen bond acceptor count [MProp:scalar:integer]>
9

> <Formal charge [MProp:scalar:integer]>
0

> <Topological polar surface area [A^2] [MProp:scalar:double]>
181.62

> <Polarizability [A^3] [MProp:scalar:double]>
43.32

> <Molar refractivity [cm^3/mol] [MProp:scalar:double]>
114.28

> <Van der Waals volume [A^3] [MProp:scalar:double]>
376.24

> <Minimum projection area [A^2] [MProp:scalar:double]>
59.46

> <Maximum projection area [A^2] [MProp:scalar:double]>
101.03

> <Minimum projection radius [A] [MProp:scalar:double]>
4.97

> <Maximum projection radius [A] [MProp:scalar:double]>
7.82

> <Van der Waals surface area [A^2] [MProp:scalar:double]>
541.79

> <Solvent accessible surface area [A^2] [MProp:scalar:double]>
499.21

> <Strongest acidic pKa [MProp:scalar:double]>
2.99

> <Strongest basic pKa [MProp:scalar:double]>
6.75

> <Isoelectric point [MProp:scalar:double]>
4.79

> <Intrinsic solubility [logS] [MProp:scalar:double]>
-2.84

> <Solubility category>
High

> <logP [MProp:scalar:double]>
-3.33

> <logD_PH0 [MProp:scalar:double]>
-4.41

> <logD_PH1 [MProp:scalar:double]>
-4.24

> <logD_PH2 [MProp:scalar:double]>
-4.02

> <logD_PH3 [MProp:scalar:double]>
-3.57

> <logD_PH4 [MProp:scalar:double]>
-3.36

> <logD_PH5 [MProp:scalar:double]>
-3.33

> <logD_PH6 [MProp:scalar:double]>
-3.39

> <logD_PH7 [MProp:scalar:double]>
-3.8

> <logD_PH8 [MProp:scalar:double]>
-4.88

> <logD_PH9 [MProp:scalar:double]>
-6.06

> <logD_PH10 [MProp:scalar:double]>
-7.43

> <logD_PH11 [MProp:scalar:double]>
-8.72

> <logD_PH12 [MProp:scalar:double]>
-9.51

> <logD_PH13 [MProp:scalar:double]>
-9.9

> <logD_PH14 [MProp:scalar:double]>
-10.7

> <HLB [MProp:scalar:double]>
23.32

> <IUPAC name>
(4S,4aS,5aS,6S,12aS)-7-chloro-4-(dimethylamino)-1,6,10,12,12a-pentahydroxy-3,11-dioxo-3,4,4a,5,5a,6,11,12a-octahydrotetracene-2-carboxamide

> <SMILES>
CN(C)[C@H]1[C@@H]2C[C@@H]3[C@H](O)C4=C(Cl)C=CC(O)=C4C(=O)C3=C(O)[C@]2(O)C(O)=C(C(N)=O)C1=O

> <InChI>
InChI=1S/C21H21ClN2O8/c1-24(2)14-7-5-6-10(16(27)12-9(25)4-3-8(22)11(12)15(6)26)18(29)21(7,32)19(30)13(17(14)28)20(23)31/h3-4,6-7,14-15,25-26,29-30,32H,5H2,1-2H3,(H2,23,31)/t6-,7-,14-,15-,21-/m0/s1

> <InChIKey>
WEBSMDPUSYHNPL-SEYHBJAFSA-N

> <Traditional name>
(4S,4aS,5aS,6S,12aS)-7-chloro-4-(dimethylamino)-1,6,10,12,12a-pentahydroxy-3,11-dioxo-4a,5,5a,6-tetrahydro-4H-tetracene-2-carboxamide

> <Common names>
N/A

> <CAS Registry Numbers(R)>
N/A

$$$$
Doxycycline
  Mrv2222 01232613222D          

 32 35  0  0  1  0            999 V2000
    2.1434   -1.2375    0.0000 C   0  0  0  0  0  0  0  0  0  0  0  0
    2.1434   -0.4125    0.0000 C   0  0  2  0  0  0  0  0  0  0  0  0
    2.8579    0.0000    0.0000 C   0  0  1  0  0  0  0  0  0  0  0  0
    3.5724   -0.4125    0.0000 C   0  0  1  0  0  0  0  0  0  0  0  0
    4.2868    0.0000    0.0000 C   0  0  1  0  0  0  0  0  0  0  0  0
    5.0013   -0.4125    0.0000 C   0  0  1  0  0  0  0  0  0  0  0  0
    5.7158    0.0000    0.0000 C   0  0  0  0  0  0  0  0  0  0  0  0
    6.4302   -0.4125    0.0000 O   0  0  0  0  0  0  0  0  0  0  0  0
    5.7158    0.8250    0.0000 C   0  0  0  0  0  0  0  0  0  0  0  0
    5.0013    1.2375    0.0000 C   0  0  0  0  0  0  0  0  0  0  0  0
    4.2868    0.8250    0.0000 C   0  0  1  0  0  0  0  0  0  0  0  0
    3.5724    1.2375    0.0000 C   0  0  0  0  0  0  0  0  0  0  0  0
    3.5724    2.0625    0.0000 O   0  0  0  0  0  0  0  0  0  0  0  0
    2.8579    0.8250    0.0000 C   0  0  0  0  0  0  0  0  0  0  0  0
    2.1434    1.2375    0.0000 C   0  0  0  0  0  0  0  0  0  0  0  0
    1.4289    0.8250    0.0000 C   0  0  0  0  0  0  0  0  0  0  0  0
    1.4289    0.0000    0.0000 C   0  0  0  0  0  0  0  0  0  0  0  0
    0.7145   -0.4125    0.0000 C   0  0  0  0  0  0  0  0  0  0  0  0
    0.0000    0.0000    0.0000 C   0  0  0  0  0  0  0  0  0  0  0  0
    0.0000    0.8250    0.0000 C   0  0  0  0  0  0  0  0  0  0  0  0
    0.7145    1.2375    0.0000 C   0  0  0  0  0  0  0  0  0  0  0  0
    0.7145    2.0625    0.0000 O   0  0  0  0  0  0  0  0  0  0  0  0
    2.1434    2.0625    0.0000 O   0  0  0  0  0  0  0  0  0  0  0  0
    4.2868    1.6500    0.0000 O   0  0  0  0  0  0  0  0  0  0  0  0
    5.0013    2.0625    0.0000 O   0  0  0  0  0  0  0  0  0  0  0  0
    6.4302    1.2375    0.0000 C   0  0  0  0  0  0  0  0  0  0  0  0
    6.4302    2.0625    0.0000 O   0  0  0  0  0  0  0  0  0  0  0  0
    7.1447    0.8250    0.0000 N   0  0  0  0  0  0  0  0  0  0  0  0
    5.0013   -1.2375    0.0000 N   0  0  0  0  0  0  0  0  0  0  0  0
    5.7158   -1.6500    0.0000 C   0  0  0  0  0  0  0  0  0  0  0  0
    4.2868   -1.6500    0.0000 C   0  0  0  0  0  0  0  0  0  0  0  0
    3.5724   -1.2375    0.0000 O   0  0  0  0  0  0  0  0  0  0  0  0
  2  1  1  1  0  0  0
  3  2  1  0  0  0  0
  4  3  1  0  0  0  0
  5  4  1  6  0  0  0
  5  6  1  0  0  0  0
  6  7  1  0  0  0  0
  7  8  2  0  0  0  0
  7  9  1  0  0  0  0
  9 10  1  0  0  0  0
 11 10  1  0  0  0  0
  5 11  1  0  0  0  0
 11 12  1  0  0  0  0
 12 13  1  0  0  0  0
 12 14  2  0  0  0  0
  3 14  1  6  0  0  0
 14 15  1  0  0  0  0
 15 16  1  0  0  0  0
 16 17  2  0  0  0  0
  2 17  1  0  0  0  0
 17 18  1  0  0  0  0
 18 19  2  0  0  0  0
 19 20  1  0  0  0  0
 20 21  2  0  0  0  0
 16 21  1  0  0  0  0
 21 22  1  0  0  0  0
 15 23  2  0  0  0  0
 11 24  1  1  0  0  0
 10 25  2  0  0  0  0
  9 26  1  0  0  0  0
 26 27  2  0  0  0  0
 26 28  1  0  0  0  0
  6 29  1  1  0  0  0
 29 30  1  0  0  0  0
 29 31  1  0  0  0  0
  4 32  1  1  0  0  0
M  END
> <Molar mass [g/mol] [MProp:scalar:double]>
444.44

> <Exact mass [Da] [MProp:scalar:double]>
444.153265741

> <Formula>
C22H24N2O8

> <Composition>
C (59.46%), H (5.44%), N (6.30%), O (28.80%)

> <Lipinski's rule of five [MProp:scalar:boolean]>
true

> <Atom count [MProp:scalar:integer]>
56

> <Heavy atom count [MProp:scalar:integer]>
32

> <Asymmetric atom count [MProp:scalar:integer]>
7

> <Rotatable bond count [MProp:scalar:integer]>
2

> <Ring count [MProp:scalar:integer]>
4

> <Aromatic ring count [MProp:scalar:integer]>
1

> <Hetero ring count [MProp:scalar:integer]>
0

> <FSP3 [MProp:scalar:double]>
0.45

> <Hydrogen bond donor count [MProp:scalar:integer]>
5

> <Hydrogen bond acceptor count [MProp:scalar:integer]>
9

> <Formal charge [MProp:scalar:integer]>
0

> <Topological polar surface area [A^2] [MProp:scalar:double]>
178.46

> <Polarizability [A^3] [MProp:scalar:double]>
42.85

> <Molar refractivity [cm^3/mol] [MProp:scalar:double]>
111.79

> <Van der Waals volume [A^3] [MProp:scalar:double]>
380.46

> <Minimum projection area [A^2] [MProp:scalar:double]>
69.59

> <Maximum projection area [A^2] [MProp:scalar:double]>
93.0

> <Minimum projection radius [A] [MProp:scalar:double]>
5.35

> <Maximum projection radius [A] [MProp:scalar:double]>
6.33

> <Van der Waals surface area [A^2] [MProp:scalar:double]>
573.0

> <Solvent accessible surface area [A^2] [MProp:scalar:double]>
519.07

> <Strongest acidic pKa [MProp:scalar:double]>
7.22

> <Strongest basic pKa [MProp:scalar:double]>
5.98

> <Isoelectric point [MProp:scalar:double]>
6.48

> <Intrinsic solubility [logS] [MProp:scalar:double]>
-2.75

> <Solubility category>
High

> <logP [MProp:scalar:double]>
-0.69

> <logD_PH0 [MProp:scalar:double]>
-4.73

> <logD_PH1 [MProp:scalar:double]>
-3.97

> <logD_PH2 [MProp:scalar:double]>
-3.63

> <logD_PH3 [MProp:scalar:double]>
-3.24

> <logD_PH4 [MProp:scalar:double]>
-2.42

> <logD_PH5 [MProp:scalar:double]>
-1.48

> <logD_PH6 [MProp:scalar:double]>
-0.76

> <logD_PH7 [MProp:scalar:double]>
-0.69

> <logD_PH8 [MProp:scalar:double]>
-1.46

> <logD_PH9 [MProp:scalar:double]>
-3.01

> <logD_PH10 [MProp:scalar:double]>
-4.74

> <logD_PH11 [MProp:scalar:double]>
-6.26

> <logD_PH12 [MProp:scalar:double]>
-7.42

> <logD_PH13 [MProp:scalar:double]>
-8.38

> <logD_PH14 [MProp:scalar:double]>
-9.42

> <HLB [MProp:scalar:double]>
21.62

> <IUPAC name>
(4S,4aR,5S,5aR,6R,12aS)-4-(dimethylamino)-5,10,12,12a-tetrahydroxy-6-methyl-1,3,11-trioxo-1,2,3,4,4a,5,5a,6,11,12a-decahydrotetracene-2-carboxamide

> <SMILES>
C[C@@H]1[C@H]2[C@H](O)[C@H]3[C@H](N(C)C)C(=O)C(C(N)=O)C(=O)[C@@]3(O)C(O)=C2C(=O)C2=C1C=CC=C2O

> <InChI>
InChI=1S/C22H24N2O8/c1-7-8-5-4-6-9(25)11(8)16(26)12-10(7)17(27)14-15(24(2)3)18(28)13(21(23)31)20(30)22(14,32)19(12)29/h4-7,10,13-15,17,25,27,29,32H,1-3H3,(H2,23,31)/t7-,10+,13?,14+,15-,17-,22-/m0/s1

> <InChIKey>
AQDATXBTAPVWIB-AZUNMRRLSA-N

> <Traditional name>
(4S,4aR,5S,5aR,6R,12aS)-4-(dimethylamino)-5,10,12,12a-tetrahydroxy-6-methyl-1,3,11-trioxo-2,4,4a,5,5a,6-hexahydrotetracene-2-carboxamide

> <Common names>
N/A

> <CAS Registry Numbers(R)>
N/A

$$$$
Meclocycline
  Mrv2222 01232613222D          

 33 36  0  0  1  0            999 V2000
    2.1434   -1.2375    0.0000 C    0  0  0  0  0  0  0  0  0  0  0  0
    2.8579   -1.6500    0.0000 N    0  0  0  0  0  0  0  0  0  0  0  0
    3.5724   -1.2375    0.0000 C    0  0  0  0  0  0  0  0  0  0  0  0
    2.8579   -2.4750    0.0000 C    0  0  1  0  0  0  0  0  0  0  0  0
    3.5724   -2.8875    0.0000 C    0  0  2  0  0  0  0  0  0  0  0  0
    4.2868   -2.4750    0.0000 C    0  0  2  0  0  0  0  0  0  0  0  0
    5.0013   -2.8875    0.0000 C    0  0  2  0  0  0  0  0  0  0  0  0
    5.7158   -2.4750    0.0000 C    0  0  0  0  0  0  0  0  0  0  0  0
    5.7158   -1.6500    0.0000 C    0  0  0  0  0  0  0  0  0  0  0  0
    6.4302   -2.8875    0.0000 C    0  0  0  0  0  0  0  0  0  0  0  0
    7.1447   -2.4750    0.0000 C    0  0  0  0  0  0  0  0  0  0  0  0
    7.8592   -2.8875    0.0000 C    0  0  0  0  0  0  0  0  0  0  0  0
    7.8592   -3.7125    0.0000 C    0  0  0  0  0  0  0  0  0  0  0  0
    7.1447   -4.1250    0.0000 C    0  0  0  0  0  0  0  0  0  0  0  0
    6.4302   -3.7125    0.0000 C    0  0  0  0  0  0  0  0  0  0  0  0
    5.7158   -4.1250    0.0000 C    0  0  0  0  0  0  0  0  0  0  0  0
    5.0013   -3.7125    0.0000 C    0  0  0  0  0  0  0  0  0  0  0  0
    4.2868   -4.1250    0.0000 C    0  0  0  0  0  0  0  0  0  0  0  0
    4.2868   -4.9500    0.0000 O    0  0  0  0  0  0  0  0  0  0  0  0
    3.5724   -3.7125    0.0000 C    0  0  2  0  0  0  0  0  0  0  0  0
    2.8579   -4.1250    0.0000 C    0  0  0  0  0  0  0  0  0  0  0  0
    2.1434   -3.7125    0.0000 C    0  0  0  0  0  0  0  0  0  0  0  0
    2.1434   -2.8875    0.0000 C    0  0  0  0  0  0  0  0  0  0  0  0
    1.4289   -2.4750    0.0000 O    0  0  0  0  0  0  0  0  0  0  0  0
    1.4289   -4.1250    0.0000 C    0  0  0  0  0  0  0  0  0  0  0  0
    1.4289   -4.9500    0.0000 O    0  0  0  0  0  0  0  0  0  0  0  0
    0.7145   -3.7125    0.0000 N    0  0  0  0  0  0  0  0  0  0  0  0
    2.8579   -4.9500    0.0000 O    0  0  0  0  0  0  0  0  0  0  0  0
    3.5724   -4.5375    0.0000 O    0  0  0  0  0  0  0  0  0  0  0  0
    5.7158   -4.9500    0.0000 O    0  0  0  0  0  0  0  0  0  0  0  0
    7.1447   -4.9500    0.0000 O    0  0  0  0  0  0  0  0  0  0  0  0
    7.1447   -1.6500    0.0000 Cl   0  0  0  0  0  0  0  0  0  0  0  0
    4.2868   -1.6500    0.0000 O    0  0  0  0  0  0  0  0  0  0  0  0
  1  2  1  0  0  0  0
  2  3  1  0  0  0  0
  4  2  1  1  0  0  0
  5  4  1  6  0  0  0
  5  6  1  0  0  0  0
  6  7  1  0  0  0  0
  7  8  1  6  0  0  0
  8  9  2  0  0  0  0
  8 10  1  0  0  0  0
 10 11  2  0  0  0  0
 11 12  1  0  0  0  0
 12 13  2  0  0  0  0
 13 14  1  0  0  0  0
 14 15  2  0  0  0  0
 10 15  1  0  0  0  0
 15 16  1  0  0  0  0
 16 17  1  0  0  0  0
  7 17  1  0  0  0  0
 17 18  2  0  0  0  0
 18 19  1  0  0  0  0
 20 18  1  0  0  0  0
  5 20  1  0  0  0  0
 20 21  1  0  0  0  0
 21 22  2  0  0  0  0
 22 23  1  0  0  0  0
  4 23  1  0  0  0  0
 23 24  2  0  0  0  0
 22 25  1  0  0  0  0
 25 26  2  0  0  0  0
 25 27  1  0  0  0  0
 21 28  1  0  0  0  0
 20 29  1  1  0  0  0
 16 30  2  0  0  0  0
 14 31  1  0  0  0  0
 11 32  1  0  0  0  0
  6 33  1  1  0  0  0
M  END
> <Molar mass [g/mol] [MProp:scalar:double]>
476.87

> <Exact mass [Da] [MProp:scalar:double]>
476.0986433

> <Formula>
C22H21ClN2O8

> <Composition>
C (55.41%), H (4.44%), Cl (7.43%), N (5.87%), O (26.84%)

> <Lipinski's rule of five [MProp:scalar:boolean]>
false

> <Atom count [MProp:scalar:integer]>
54

> <Heavy atom count [MProp:scalar:integer]>
33

> <Asymmetric atom count [MProp:scalar:integer]>
5

> <Rotatable bond count [MProp:scalar:integer]>
2

> <Ring count [MProp:scalar:integer]>
4

> <Aromatic ring count [MProp:scalar:integer]>
1

> <Hetero ring count [MProp:scalar:integer]>
0

> <FSP3 [MProp:scalar:double]>
0.32

> <Hydrogen bond donor count [MProp:scalar:integer]>
6

> <Hydrogen bond acceptor count [MProp:scalar:integer]>
9

> <Formal charge [MProp:scalar:integer]>
0

> <Topological polar surface area [A^2] [MProp:scalar:double]>
181.62

> <Polarizability [A^3] [MProp:scalar:double]>
44.9

> <Molar refractivity [cm^3/mol] [MProp:scalar:double]>
118.4

> <Van der Waals volume [A^3] [MProp:scalar:double]>
385.96

> <Minimum projection area [A^2] [MProp:scalar:double]>
61.24

> <Maximum projection area [A^2] [MProp:scalar:double]>
99.88

> <Minimum projection radius [A] [MProp:scalar:double]>
5.02

> <Maximum projection radius [A] [MProp:scalar:double]>
7.58

> <Van der Waals surface area [A^2] [MProp:scalar:double]>
543.95

> <Solvent accessible surface area [A^2] [MProp:scalar:double]>
501.31

> <Strongest acidic pKa [MProp:scalar:double]>
2.99

> <Strongest basic pKa [MProp:scalar:double]>
6.55

> <Isoelectric point [MProp:scalar:double]>
4.73

> <Intrinsic solubility [logS] [MProp:scalar:double]>
-3.37

> <Solubility category>
High

> <logP [MProp:scalar:double]>
-3.13

> <logD_PH0 [MProp:scalar:double]>
-4.23

> <logD_PH1 [MProp:scalar:double]>
-4.05

> <logD_PH2 [MProp:scalar:double]>
-3.83

> <logD_PH3 [MProp:scalar:double]>
-3.37

> <logD_PH4 [MProp:scalar:double]>
-3.15

> <logD_PH5 [MProp:scalar:double]>
-3.13

> <logD_PH6 [MProp:scalar:double]>
-3.22

> <logD_PH7 [MProp:scalar:double]>
-3.71

> <logD_PH8 [MProp:scalar:double]>
-4.7

> <logD_PH9 [MProp:scalar:double]>
-5.8

> <logD_PH10 [MProp:scalar:double]>
-7.15

> <logD_PH11 [MProp:scalar:double]>
-8.47

> <logD_PH12 [MProp:scalar:double]>
-9.3

> <logD_PH13 [MProp:scalar:double]>
-9.72

> <logD_PH14 [MProp:scalar:double]>
-10.43

> <HLB [MProp:scalar:double]>
23.47

> <IUPAC name>
(4S,4aR,5S,5aR,12aS)-7-chloro-4-(dimethylamino)-1,5,10,12,12a-pentahydroxy-6-methylidene-3,11-dioxo-3,4,4a,5,5a,6,11,12a-octahydrotetracene-2-carboxamide

> <SMILES>
CN(C)[C@H]1[C@@H]2[C@@H](O)[C@@H]3C(=C)C4=C(Cl)C=CC(O)=C4C(=O)C3=C(O)[C@]2(O)C(O)=C(C(N)=O)C1=O

> <InChI>
InChI=1S/C22H21ClN2O8/c1-6-9-7(23)4-5-8(26)11(9)16(27)12-10(6)17(28)14-15(25(2)3)18(29)13(21(24)32)20(31)22(14,33)19(12)30/h4-5,10,14-15,17,26,28,30-31,33H,1H2,2-3H3,(H2,24,32)/t10-,14-,15+,17+,22+/m1/s1

> <InChIKey>
MEFKOOXNVFALTA-IWVLMIASSA-N

> <Traditional name>
(4S,4aR,5S,5aR,12aS)-7-chloro-4-(dimethylamino)-1,5,10,12,12a-pentahydroxy-6-methylidene-3,11-dioxo-4,4a,5,5a-tetrahydrotetracene-2-carboxamide

> <Common names>
N/A

> <CAS Registry Numbers(R)>
N/A

$$$$
Methacycline
  Mrv2222 01232613222D          

 32 35  0  0  1  0            999 V2000
   -2.1434   -5.3625    0.0000 C   0  0  0  0  0  0  0  0  0  0  0  0
   -1.4289   -4.9500    0.0000 N   0  0  0  0  0  0  0  0  0  0  0  0
   -0.7145   -5.3625    0.0000 C   0  0  0  0  0  0  0  0  0  0  0  0
   -1.4289   -4.1250    0.0000 C   0  0  1  0  0  0  0  0  0  0  0  0
   -0.7145   -3.7125    0.0000 C   0  0  2  0  0  0  0  0  0  0  0  0
    0.0000   -4.1250    0.0000 C   0  0  2  0  0  0  0  0  0  0  0  0
    0.7145   -3.7125    0.0000 C   0  0  2  0  0  0  0  0  0  0  0  0
    1.4289   -4.1250    0.0000 C   0  0  0  0  0  0  0  0  0  0  0  0
    1.4289   -4.9500    0.0000 C   0  0  0  0  0  0  0  0  0  0  0  0
    2.1434   -3.7125    0.0000 C   0  0  0  0  0  0  0  0  0  0  0  0
    2.1434   -2.8875    0.0000 C   0  0  0  0  0  0  0  0  0  0  0  0
    2.8579   -2.4750    0.0000 C   0  0  0  0  0  0  0  0  0  0  0  0
    3.5724   -2.8875    0.0000 C   0  0  0  0  0  0  0  0  0  0  0  0
    3.5724   -3.7125    0.0000 C   0  0  0  0  0  0  0  0  0  0  0  0
    2.8579   -4.1250    0.0000 C   0  0  0  0  0  0  0  0  0  0  0  0
    2.8579   -1.6500    0.0000 O   0  0  0  0  0  0  0  0  0  0  0  0
    1.4289   -2.4750    0.0000 C   0  0  0  0  0  0  0  0  0  0  0  0
    0.7145   -2.8875    0.0000 C   0  0  0  0  0  0  0  0  0  0  0  0
    0.0000   -2.4750    0.0000 C   0  0  0  0  0  0  0  0  0  0  0  0
    0.0000   -1.6500    0.0000 O   0  0  0  0  0  0  0  0  0  0  0  0
   -0.7145   -2.8875    0.0000 C   0  0  2  0  0  0  0  0  0  0  0  0
   -1.4289   -2.4750    0.0000 C   0  0  0  0  0  0  0  0  0  0  0  0
   -2.1434   -2.8875    0.0000 C   0  0  0  0  0  0  0  0  0  0  0  0
   -2.1434   -3.7125    0.0000 C   0  0  0  0  0  0  0  0  0  0  0  0
   -2.8579   -4.1250    0.0000 O   0  0  0  0  0  0  0  0  0  0  0  0
   -2.8579   -2.4750    0.0000 C   0  0  0  0  0  0  0  0  0  0  0  0
   -3.5724   -2.8875    0.0000 O   0  0  0  0  0  0  0  0  0  0  0  0
   -2.8579   -1.6500    0.0000 N   0  0  0  0  0  0  0  0  0  0  0  0
   -1.4289   -1.6500    0.0000 O   0  0  0  0  0  0  0  0  0  0  0  0
   -0.7145   -2.0625    0.0000 O   0  0  0  0  0  0  0  0  0  0  0  0
    1.4289   -1.6500    0.0000 O   0  0  0  0  0  0  0  0  0  0  0  0
    0.0000   -4.9500    0.0000 O   0  0  0  0  0  0  0  0  0  0  0  0
  1  2  1  0  0  0  0
  2  3  1  0  0  0  0
  4  2  1  6  0  0  0
  5  4  1  1  0  0  0
  5  6  1  0  0  0  0
  6  7  1  0  0  0  0
  7  8  1  1  0  0  0
  8  9  2  0  0  0  0
  8 10  1  0  0  0  0
 10 11  2  0  0  0  0
 11 12  1  0  0  0  0
 12 13  2  0  0  0  0
 13 14  1  0  0  0  0
 14 15  2  0  0  0  0
 10 15  1  0  0  0  0
 12 16  1  0  0  0  0
 11 17  1  0  0  0  0
 17 18  1  0  0  0  0
  7 18  1  0  0  0  0
 18 19  2  0  0  0  0
 19 20  1  0  0  0  0
 21 19  1  0  0  0  0
  5 21  1  0  0  0  0
 21 22  1  0  0  0  0
 22 23  2  0  0  0  0
 23 24  1  0  0  0  0
  4 24  1  0  0  0  0
 24 25  2  0  0  0  0
 23 26  1  0  0  0  0
 26 27  2  0  0  0  0
 26 28  1  0  0  0  0
 22 29  1  0  0  0  0
 21 30  1  6  0  0  0
 17 31  2  0  0  0  0
  6 32  1  6  0  0  0
M  END
> <Molar mass [g/mol] [MProp:scalar:double]>
442.424

> <Exact mass [Da] [MProp:scalar:double]>
442.137615676

> <Formula>
C22H22N2O8

> <Composition>
C (59.73%), H (5.01%), N (6.33%), O (28.93%)

> <Lipinski's rule of five [MProp:scalar:boolean]>
false

> <Atom count [MProp:scalar:integer]>
54

> <Heavy atom count [MProp:scalar:integer]>
32

> <Asymmetric atom count [MProp:scalar:integer]>
5

> <Rotatable bond count [MProp:scalar:integer]>
2

> <Ring count [MProp:scalar:integer]>
4

> <Aromatic ring count [MProp:scalar:integer]>
1

> <Hetero ring count [MProp:scalar:integer]>
0

> <FSP3 [MProp:scalar:double]>
0.32

> <Hydrogen bond donor count [MProp:scalar:integer]>
6

> <Hydrogen bond acceptor count [MProp:scalar:integer]>
9

> <Formal charge [MProp:scalar:integer]>
0

> <Topological polar surface area [A^2] [MProp:scalar:double]>
181.62

> <Polarizability [A^3] [MProp:scalar:double]>
42.96

> <Molar refractivity [cm^3/mol] [MProp:scalar:double]>
113.59

> <Van der Waals volume [A^3] [MProp:scalar:double]>
371.99

> <Minimum projection area [A^2] [MProp:scalar:double]>
61.69

> <Maximum projection area [A^2] [MProp:scalar:double]>
97.36

> <Minimum projection radius [A] [MProp:scalar:double]>
5.26

> <Maximum projection radius [A] [MProp:scalar:double]>
7.64

> <Van der Waals surface area [A^2] [MProp:scalar:double]>
528.19

> <Solvent accessible surface area [A^2] [MProp:scalar:double]>
493.89

> <Strongest acidic pKa [MProp:scalar:double]>
3.2

> <Strongest basic pKa [MProp:scalar:double]>
6.59

> <Isoelectric point [MProp:scalar:double]>
4.81

> <Intrinsic solubility [logS] [MProp:scalar:double]>
-2.74

> <Solubility category>
High

> <logP [MProp:scalar:double]>
-3.71

> <logD_PH0 [MProp:scalar:double]>
-4.8

> <logD_PH1 [MProp:scalar:double]>
-4.61

> <logD_PH2 [MProp:scalar:double]>
-4.46

> <logD_PH3 [MProp:scalar:double]>
-4.03

> <logD_PH4 [MProp:scalar:double]>
-3.75

> <logD_PH5 [MProp:scalar:double]>
-3.71

> <logD_PH6 [MProp:scalar:double]>
-3.78

> <logD_PH7 [MProp:scalar:double]>
-4.2

> <logD_PH8 [MProp:scalar:double]>
-5.06

> <logD_PH9 [MProp:scalar:double]>
-6.07

> <logD_PH10 [MProp:scalar:double]>
-7.26

> <logD_PH11 [MProp:scalar:double]>
-8.64

> <logD_PH12 [MProp:scalar:double]>
-9.67

> <logD_PH13 [MProp:scalar:double]>
-10.28

> <logD_PH14 [MProp:scalar:double]>
-11.04

> <HLB [MProp:scalar:double]>
23.66

> <IUPAC name>
(4S,4aR,5S,5aR,12aS)-4-(dimethylamino)-1,5,10,12,12a-pentahydroxy-6-methylidene-3,11-dioxo-3,4,4a,5,5a,6,11,12a-octahydrotetracene-2-carboxamide

> <SMILES>
CN(C)[C@H]1[C@@H]2[C@@H](O)[C@@H]3C(=C)C4=C(C(O)=CC=C4)C(=O)C3=C(O)[C@]2(O)C(O)=C(C(N)=O)C1=O

> <InChI>
InChI=1S/C22H22N2O8/c1-7-8-5-4-6-9(25)11(8)16(26)12-10(7)17(27)14-15(24(2)3)18(28)13(21(23)31)20(30)22(14,32)19(12)29/h4-6,10,14-15,17,25,27,29-30,32H,1H2,2-3H3,(H2,23,31)/t10-,14-,15+,17+,22+/m1/s1

> <InChIKey>
ZZNRJDRMIATXIN-IWVLMIASSA-N

> <Traditional name>
(4S,4aR,5S,5aR,12aS)-4-(dimethylamino)-1,5,10,12,12a-pentahydroxy-6-methylidene-3,11-dioxo-4,4a,5,5a-tetrahydrotetracene-2-carboxamide

> <Common names>
N/A

> <CAS Registry Numbers(R)>
N/A

$$$$
Minocycline
  Mrv2222 01232613222D          

 33 36  0  0  1  0            999 V2000
    2.1434   -1.2375    0.0000 C   0  0  0  0  0  0  0  0  0  0  0  0
    2.8579   -1.6500    0.0000 N   0  0  0  0  0  0  0  0  0  0  0  0
    3.5724   -1.2375    0.0000 C   0  0  0  0  0  0  0  0  0  0  0  0
    2.8579   -2.4750    0.0000 C   0  0  1  0  0  0  0  0  0  0  0  0
    3.5724   -2.8875    0.0000 C   0  0  2  0  0  0  0  0  0  0  0  0
    4.2868   -2.4750    0.0000 C   0  0  0  0  0  0  0  0  0  0  0  0
    5.0013   -2.8875    0.0000 C   0  0  2  0  0  0  0  0  0  0  0  0
    5.7158   -2.4750    0.0000 C   0  0  0  0  0  0  0  0  0  0  0  0
    6.4302   -2.8875    0.0000 C   0  0  0  0  0  0  0  0  0  0  0  0
    7.1447   -2.4750    0.0000 C   0  0  0  0  0  0  0  0  0  0  0  0
    7.8592   -2.8875    0.0000 C   0  0  0  0  0  0  0  0  0  0  0  0
    7.8592   -3.7125    0.0000 C   0  0  0  0  0  0  0  0  0  0  0  0
    7.1447   -4.1250    0.0000 C   0  0  0  0  0  0  0  0  0  0  0  0
    6.4302   -3.7125    0.0000 C   0  0  0  0  0  0  0  0  0  0  0  0
    5.7158   -4.1250    0.0000 C   0  0  0  0  0  0  0  0  0  0  0  0
    5.0013   -3.7125    0.0000 C   0  0  0  0  0  0  0  0  0  0  0  0
    4.2868   -4.1250    0.0000 C   0  0  0  0  0  0  0  0  0  0  0  0
    4.2868   -4.9500    0.0000 O   0  0  0  0  0  0  0  0  0  0  0  0
    3.5724   -3.7125    0.0000 C   0  0  2  0  0  0  0  0  0  0  0  0
    2.8579   -4.1250    0.0000 C   0  0  0  0  0  0  0  0  0  0  0  0
    2.1434   -3.7125    0.0000 C   0  0  0  0  0  0  0  0  0  0  0  0
    2.1434   -2.8875    0.0000 C   0  0  0  0  0  0  0  0  0  0  0  0
    1.4289   -2.4750    0.0000 O   0  0  0  0  0  0  0  0  0  0  0  0
    1.4289   -4.1250    0.0000 C   0  0  0  0  0  0  0  0  0  0  0  0
    0.7145   -3.7125    0.0000 O   0  0  0  0  0  0  0  0  0  0  0  0
    1.4289   -4.9500    0.0000 N   0  0  0  0  0  0  0  0  0  0  0  0
    2.8579   -4.9500    0.0000 O   0  0  0  0  0  0  0  0  0  0  0  0
    3.5724   -4.5375    0.0000 O   0  0  0  0  0  0  0  0  0  0  0  0
    5.7158   -4.9500    0.0000 O   0  0  0  0  0  0  0  0  0  0  0  0
    7.1447   -4.9500    0.0000 O   0  0  0  0  0  0  0  0  0  0  0  0
    7.1447   -1.6500    0.0000 N   0  0  0  0  0  0  0  0  0  0  0  0
    6.4302   -1.2375    0.0000 C   0  0  0  0  0  0  0  0  0  0  0  0
    7.8592   -1.2375    0.0000 C   0  0  0  0  0  0  0  0  0  0  0  0
  1  2  1  0  0  0  0
  2  3  1  0  0  0  0
  4  2  1  1  0  0  0
  5  4  1  0  0  0  0
  5  6  1  6  0  0  0
  7  6  1  6  0  0  0
  7  8  1  0  0  0  0
  8  9  1  0  0  0  0
  9 10  2  0  0  0  0
 10 11  1  0  0  0  0
 11 12  2  0  0  0  0
 12 13  1  0  0  0  0
 13 14  2  0  0  0  0
  9 14  1  0  0  0  0
 14 15  1  0  0  0  0
 15 16  1  0  0  0  0
  7 16  1  0  0  0  0
 16 17  2  0  0  0  0
 17 18  1  0  0  0  0
 19 17  1  0  0  0  0
  5 19  1  0  0  0  0
 19 20  1  0  0  0  0
 20 21  2  0  0  0  0
 21 22  1  0  0  0  0
  4 22  1  0  0  0  0
 22 23  2  0  0  0  0
 21 24  1  0  0  0  0
 24 25  2  0  0  0  0
 24 26  1  0  0  0  0
 20 27  1  0  0  0  0
 19 28  1  1  0  0  0
 15 29  2  0  0  0  0
 13 30  1  0  0  0  0
 10 31  1  0  0  0  0
 31 32  1  0  0  0  0
 31 33  1  0  0  0  0
M  END
> <Molar mass [g/mol] [MProp:scalar:double]>
457.483

> <Exact mass [Da] [MProp:scalar:double]>
457.184900221

> <Formula>
C23H27N3O7

> <Composition>
C (60.39%), H (5.95%), N (9.19%), O (24.48%)

> <Lipinski's rule of five [MProp:scalar:boolean]>
true

> <Atom count [MProp:scalar:integer]>
60

> <Heavy atom count [MProp:scalar:integer]>
33

> <Asymmetric atom count [MProp:scalar:integer]>
4

> <Rotatable bond count [MProp:scalar:integer]>
3

> <Ring count [MProp:scalar:integer]>
4

> <Aromatic ring count [MProp:scalar:integer]>
1

> <Hetero ring count [MProp:scalar:integer]>
0

> <FSP3 [MProp:scalar:double]>
0.43

> <Hydrogen bond donor count [MProp:scalar:integer]>
5

> <Hydrogen bond acceptor count [MProp:scalar:integer]>
9

> <Formal charge [MProp:scalar:integer]>
0

> <Topological polar surface area [A^2] [MProp:scalar:double]>
164.63

> <Polarizability [A^3] [MProp:scalar:double]>
45.46

> <Molar refractivity [cm^3/mol] [MProp:scalar:double]>
122.47

> <Van der Waals volume [A^3] [MProp:scalar:double]>
400.92

> <Minimum projection area [A^2] [MProp:scalar:double]>
65.91

> <Maximum projection area [A^2] [MProp:scalar:double]>
108.55

> <Minimum projection radius [A] [MProp:scalar:double]>
5.15

> <Maximum projection radius [A] [MProp:scalar:double]>
8.03

> <Van der Waals surface area [A^2] [MProp:scalar:double]>
606.64

> <Solvent accessible surface area [A^2] [MProp:scalar:double]>
570.79

> <Strongest acidic pKa [MProp:scalar:double]>
3.23

> <Strongest basic pKa [MProp:scalar:double]>
6.9

> <Isoelectric point [MProp:scalar:double]>
6.18

> <Intrinsic solubility [logS] [MProp:scalar:double]>
-2.31

> <Solubility category>
High

> <logP [MProp:scalar:double]>
-2.81

> <logD_PH0 [MProp:scalar:double]>
-6.78

> <logD_PH1 [MProp:scalar:double]>
-6.59

> <logD_PH2 [MProp:scalar:double]>
-6.36

> <logD_PH3 [MProp:scalar:double]>
-5.47

> <logD_PH4 [MProp:scalar:double]>
-4.31

> <logD_PH5 [MProp:scalar:double]>
-3.35

> <logD_PH6 [MProp:scalar:double]>
-2.81

> <logD_PH7 [MProp:scalar:double]>
-2.98

> <logD_PH8 [MProp:scalar:double]>
-3.85

> <logD_PH9 [MProp:scalar:double]>
-4.9

> <logD_PH10 [MProp:scalar:double]>
-5.91

> <logD_PH11 [MProp:scalar:double]>
-6.9

> <logD_PH12 [MProp:scalar:double]>
-7.89

> <logD_PH13 [MProp:scalar:double]>
-8.87

> <logD_PH14 [MProp:scalar:double]>
-9.81

> <HLB [MProp:scalar:double]>
21.94

> <IUPAC name>
(4S,4aS,5aR,12aS)-4,7-bis(dimethylamino)-1,10,12,12a-tetrahydroxy-3,11-dioxo-3,4,4a,5,5a,6,11,12a-octahydrotetracene-2-carboxamide

> <SMILES>
CN(C)[C@H]1[C@@H]2C[C@@H]3CC4=C(C=CC(O)=C4C(=O)C3=C(O)[C@]2(O)C(O)=C(C(N)=O)C1=O)N(C)C

> <InChI>
InChI=1S/C23H27N3O7/c1-25(2)12-5-6-13(27)15-10(12)7-9-8-11-17(26(3)4)19(29)16(22(24)32)21(31)23(11,33)20(30)14(9)18(15)28/h5-6,9,11,17,27,30-31,33H,7-8H2,1-4H3,(H2,24,32)/t9-,11-,17-,23-/m0/s1

> <InChIKey>
KXEYSKGUYBJHIZ-KVUCHLLUSA-N

> <Traditional name>
(4S,4aS,5aR,12aS)-4,7-bis(dimethylamino)-1,10,12,12a-tetrahydroxy-3,11-dioxo-4a,5,5a,6-tetrahydro-4H-tetracene-2-carboxamide

> <Common names>
N/A

> <CAS Registry Numbers(R)>
N/A

$$$$
Oxytetracycline
  Mrv2222 01232613222D          

 33 36  0  0  1  0            999 V2000
    1.6131   -1.0445    0.0000 C   0  0  0  0  0  0  0  0  0  0  0  0
    2.1434   -0.4125    0.0000 C   0  0  2  0  0  0  0  0  0  0  0  0
    2.8579    0.0000    0.0000 C   0  0  1  0  0  0  0  0  0  0  0  0
    3.5724   -0.4125    0.0000 C   0  0  1  0  0  0  0  0  0  0  0  0
    4.2868    0.0000    0.0000 C   0  0  1  0  0  0  0  0  0  0  0  0
    5.0013   -0.4125    0.0000 C   0  0  1  0  0  0  0  0  0  0  0  0
    5.7158    0.0000    0.0000 C   0  0  0  0  0  0  0  0  0  0  0  0
    6.4302   -0.4125    0.0000 O   0  0  0  0  0  0  0  0  0  0  0  0
    5.7158    0.8250    0.0000 C   0  0  0  0  0  0  0  0  0  0  0  0
    5.0013    1.2375    0.0000 C   0  0  0  0  0  0  0  0  0  0  0  0
    4.2868    0.8250    0.0000 C   0  0  1  0  0  0  0  0  0  0  0  0
    3.5724    1.2375    0.0000 C   0  0  0  0  0  0  0  0  0  0  0  0
    3.5724    2.0625    0.0000 O   0  0  0  0  0  0  0  0  0  0  0  0
    2.8579    0.8250    0.0000 C   0  0  0  0  0  0  0  0  0  0  0  0
    2.1434    1.2375    0.0000 C   0  0  0  0  0  0  0  0  0  0  0  0
    1.4289    0.8250    0.0000 C   0  0  0  0  0  0  0  0  0  0  0  0
    1.4289    0.0000    0.0000 C   0  0  0  0  0  0  0  0  0  0  0  0
    0.7145   -0.4125    0.0000 C   0  0  0  0  0  0  0  0  0  0  0  0
    0.0000    0.0000    0.0000 C   0  0  0  0  0  0  0  0  0  0  0  0
    0.0000    0.8250    0.0000 C   0  0  0  0  0  0  0  0  0  0  0  0
    0.7145    1.2375    0.0000 C   0  0  0  0  0  0  0  0  0  0  0  0
    0.7145    2.0625    0.0000 O   0  0  0  0  0  0  0  0  0  0  0  0
    2.1434    2.0625    0.0000 O   0  0  0  0  0  0  0  0  0  0  0  0
    4.2868    1.6500    0.0000 O   0  0  0  0  0  0  0  0  0  0  0  0
    5.0013    2.0625    0.0000 O   0  0  0  0  0  0  0  0  0  0  0  0
    6.4302    1.2375    0.0000 C   0  0  0  0  0  0  0  0  0  0  0  0
    6.4302    2.0625    0.0000 O   0  0  0  0  0  0  0  0  0  0  0  0
    7.1447    0.8250    0.0000 N   0  0  0  0  0  0  0  0  0  0  0  0
    5.0013   -1.2375    0.0000 N   0  0  0  0  0  0  0  0  0  0  0  0
    5.7158   -1.6500    0.0000 C   0  0  0  0  0  0  0  0  0  0  0  0
    4.2868   -1.6500    0.0000 C   0  0  0  0  0  0  0  0  0  0  0  0
    3.5724   -1.2375    0.0000 O   0  0  0  0  0  0  0  0  0  0  0  0
    2.6737   -1.0445    0.0000 O   0  0  0  0  0  0  0  0  0  0  0  0
  2  1  1  1  0  0  0
  3  2  1  0  0  0  0
  4  3  1  0  0  0  0
  5  4  1  6  0  0  0
  5  6  1  0  0  0  0
  6  7  1  0  0  0  0
  7  8  2  0  0  0  0
  7  9  1  0  0  0  0
  9 10  1  0  0  0  0
 11 10  1  0  0  0  0
  5 11  1  0  0  0  0
 11 12  1  0  0  0  0
 12 13  1  0  0  0  0
 12 14  2  0  0  0  0
  3 14  1  6  0  0  0
 14 15  1  0  0  0  0
 15 16  1  0  0  0  0
 16 17  2  0  0  0  0
  2 17  1  0  0  0  0
 17 18  1  0  0  0  0
 18 19  2  0  0  0  0
 19 20  1  0  0  0  0
 20 21  2  0  0  0  0
 16 21  1  0  0  0  0
 21 22  1  0  0  0  0
 15 23  2  0  0  0  0
 11 24  1  1  0  0  0
 10 25  2  0  0  0  0
  9 26  1  0  0  0  0
 26 27  2  0  0  0  0
 26 28  1  0  0  0  0
  6 29  1  1  0  0  0
 29 30  1  0  0  0  0
 29 31  1  0  0  0  0
  4 32  1  1  0  0  0
  2 33  1  6  0  0  0
M  END
> <Molar mass [g/mol] [MProp:scalar:double]>
460.439

> <Exact mass [Da] [MProp:scalar:double]>
460.148180361

> <Formula>
C22H24N2O9

> <Composition>
C (57.39%), H (5.25%), N (6.08%), O (31.27%)

> <Lipinski's rule of five [MProp:scalar:boolean]>
false

> <Atom count [MProp:scalar:integer]>
57

> <Heavy atom count [MProp:scalar:integer]>
33

> <Asymmetric atom count [MProp:scalar:integer]>
7

> <Rotatable bond count [MProp:scalar:integer]>
2

> <Ring count [MProp:scalar:integer]>
4

> <Aromatic ring count [MProp:scalar:integer]>
1

> <Hetero ring count [MProp:scalar:integer]>
0

> <FSP3 [MProp:scalar:double]>
0.45

> <Hydrogen bond donor count [MProp:scalar:integer]>
6

> <Hydrogen bond acceptor count [MProp:scalar:integer]>
10

> <Formal charge [MProp:scalar:integer]>
0

> <Topological polar surface area [A^2] [MProp:scalar:double]>
198.69

> <Polarizability [A^3] [MProp:scalar:double]>
43.6

> <Molar refractivity [cm^3/mol] [MProp:scalar:double]>
113.3

> <Van der Waals volume [A^3] [MProp:scalar:double]>
389.31

> <Minimum projection area [A^2] [MProp:scalar:double]>
69.2

> <Maximum projection area [A^2] [MProp:scalar:double]>
92.58

> <Minimum projection radius [A] [MProp:scalar:double]>
5.67

> <Maximum projection radius [A] [MProp:scalar:double]>
6.4

> <Van der Waals surface area [A^2] [MProp:scalar:double]>
586.83

> <Solvent accessible surface area [A^2] [MProp:scalar:double]>
511.51

> <Strongest acidic pKa [MProp:scalar:double]>
7.07

> <Strongest basic pKa [MProp:scalar:double]>
5.97

> <Isoelectric point [MProp:scalar:double]>
6.48

> <Intrinsic solubility [logS] [MProp:scalar:double]>
-2.07

> <Solubility category>
High

> <logP [MProp:scalar:double]>
-1.89

> <logD_PH0 [MProp:scalar:double]>
-5.92

> <logD_PH1 [MProp:scalar:double]>
-5.16

> <logD_PH2 [MProp:scalar:double]>
-4.83

> <logD_PH3 [MProp:scalar:double]>
-4.43

> <logD_PH4 [MProp:scalar:double]>
-3.62

> <logD_PH5 [MProp:scalar:double]>
-2.68

> <logD_PH6 [MProp:scalar:double]>
-1.96

> <logD_PH7 [MProp:scalar:double]>
-1.89

> <logD_PH8 [MProp:scalar:double]>
-2.66

> <logD_PH9 [MProp:scalar:double]>
-4.22

> <logD_PH10 [MProp:scalar:double]>
-6.01

> <logD_PH11 [MProp:scalar:double]>
-7.58

> <logD_PH12 [MProp:scalar:double]>
-8.69

> <logD_PH13 [MProp:scalar:double]>
-9.62

> <logD_PH14 [MProp:scalar:double]>
-10.89

> <HLB [MProp:scalar:double]>
23.08

> <IUPAC name>
(4S,4aR,5S,5aR,6S,12aS)-4-(dimethylamino)-5,6,10,12,12a-pentahydroxy-6-methyl-1,3,11-trioxo-1,2,3,4,4a,5,5a,6,11,12a-decahydrotetracene-2-carboxamide

> <SMILES>
CN(C)[C@H]1[C@@H]2[C@@H](O)[C@H]3C(=C(O)[C@]2(O)C(=O)C(C(N)=O)C1=O)C(=O)C1=C(C=CC=C1O)[C@@]3(C)O

> <InChI>
InChI=1S/C22H24N2O9/c1-21(32)7-5-4-6-8(25)9(7)15(26)10-12(21)17(28)13-14(24(2)3)16(27)11(20(23)31)19(30)22(13,33)18(10)29/h4-6,11-14,17,25,28-29,32-33H,1-3H3,(H2,23,31)/t11?,12-,13-,14+,17+,21+,22+/m1/s1

> <InChIKey>
LUIPXMIQGDWPOS-NUORWIKGSA-N

> <Traditional name>
(4S,4aR,5S,5aR,6S,12aS)-4-(dimethylamino)-5,6,10,12,12a-pentahydroxy-6-methyl-1,3,11-trioxo-4,4a,5,5a-tetrahydro-2H-tetracene-2-carboxamide

> <Common names>
N/A

> <CAS Registry Numbers(R)>
N/A

$$$$
Omadacycline
  Mrv2222 01232613222D          

 40 43  0  0  1  0            999 V2000
    0.7145   -7.0125    0.0000 C   0  0  0  0  0  0  0  0  0  0  0  0
    0.7145   -6.1875    0.0000 C   0  0  0  0  0  0  0  0  0  0  0  0
    1.5395   -6.1875    0.0000 C   0  0  0  0  0  0  0  0  0  0  0  0
   -0.1105   -6.1875    0.0000 C   0  0  0  0  0  0  0  0  0  0  0  0
    0.7145   -5.3625    0.0000 C   0  0  0  0  0  0  0  0  0  0  0  0
    1.4289   -4.9500    0.0000 N   0  0  0  0  0  0  0  0  0  0  0  0
    1.4289   -4.1250    0.0000 C   0  0  0  0  0  0  0  0  0  0  0  0
    2.1434   -3.7125    0.0000 C   0  0  0  0  0  0  0  0  0  0  0  0
    2.1434   -2.8875    0.0000 C   0  0  0  0  0  0  0  0  0  0  0  0
    2.8579   -2.4750    0.0000 C   0  0  0  0  0  0  0  0  0  0  0  0
    3.5724   -2.8875    0.0000 C   0  0  0  0  0  0  0  0  0  0  0  0
    4.2868   -2.4750    0.0000 C   0  0  0  0  0  0  0  0  0  0  0  0
    5.0013   -2.8875    0.0000 C   0  0  1  0  0  0  0  0  0  0  0  0
    5.7158   -2.4750    0.0000 C   0  0  0  0  0  0  0  0  0  0  0  0
    6.4302   -2.8875    0.0000 C   0  0  1  0  0  0  0  0  0  0  0  0
    7.1447   -2.4750    0.0000 C   0  0  1  0  0  0  0  0  0  0  0  0
    7.8592   -2.8875    0.0000 C   0  0  0  0  0  0  0  0  0  0  0  0
    8.5737   -2.4750    0.0000 O   0  0  0  0  0  0  0  0  0  0  0  0
    7.8592   -3.7125    0.0000 C   0  0  0  0  0  0  0  0  0  0  0  0
    7.1447   -4.1250    0.0000 C   0  0  0  0  0  0  0  0  0  0  0  0
    6.4302   -3.7125    0.0000 C   0  0  1  0  0  0  0  0  0  0  0  0
    5.7158   -4.1250    0.0000 C   0  0  0  0  0  0  0  0  0  0  0  0
    5.7158   -4.9500    0.0000 O   0  0  0  0  0  0  0  0  0  0  0  0
    5.0013   -3.7125    0.0000 C   0  0  0  0  0  0  0  0  0  0  0  0
    4.2868   -4.1250    0.0000 C   0  0  0  0  0  0  0  0  0  0  0  0
    3.5724   -3.7125    0.0000 C   0  0  0  0  0  0  0  0  0  0  0  0
    2.8579   -4.1250    0.0000 C   0  0  0  0  0  0  0  0  0  0  0  0
    2.8579   -4.9500    0.0000 O   0  0  0  0  0  0  0  0  0  0  0  0
    4.2868   -4.9500    0.0000 O   0  0  0  0  0  0  0  0  0  0  0  0
    6.4302   -4.5375    0.0000 O   0  0  0  0  0  0  0  0  0  0  0  0
    7.1447   -4.9500    0.0000 O   0  0  0  0  0  0  0  0  0  0  0  0
    8.5737   -4.1250    0.0000 C   0  0  0  0  0  0  0  0  0  0  0  0
    8.5737   -4.9500    0.0000 O   0  0  0  0  0  0  0  0  0  0  0  0
    9.2881   -3.7125    0.0000 N   0  0  0  0  0  0  0  0  0  0  0  0
    7.1447   -1.6500    0.0000 N   0  0  0  0  0  0  0  0  0  0  0  0
    7.8592   -1.2375    0.0000 C   0  0  0  0  0  0  0  0  0  0  0  0
    6.4302   -1.2375    0.0000 C   0  0  0  0  0  0  0  0  0  0  0  0
    2.8579   -1.6500    0.0000 N   0  0  0  0  0  0  0  0  0  0  0  0
    3.5724   -1.2375    0.0000 C   0  0  0  0  0  0  0  0  0  0  0  0
    2.1434   -1.2375    0.0000 C   0  0  0  0  0  0  0  0  0  0  0  0
  1  2  1  0  0  0  0
  2  3  1  0  0  0  0
  2  4  1  0  0  0  0
  2  5  1  0  0  0  0
  5  6  1  0  0  0  0
  6  7  1  0  0  0  0
  7  8  1  0  0  0  0
  8  9  2  0  0  0  0
  9 10  1  0  0  0  0
 10 11  2  0  0  0  0
 11 12  1  0  0  0  0
 13 12  1  1  0  0  0
 13 14  1  0  0  0  0
 15 14  1  1  0  0  0
 15 16  1  0  0  0  0
 16 17  1  0  0  0  0
 17 18  2  0  0  0  0
 17 19  1  0  0  0  0
 19 20  1  0  0  0  0
 21 20  1  0  0  0  0
 15 21  1  0  0  0  0
 21 22  1  0  0  0  0
 22 23  1  0  0  0  0
 22 24  2  0  0  0  0
 13 24  1  0  0  0  0
 24 25  1  0  0  0  0
 25 26  1  0  0  0  0
 11 26  1  0  0  0  0
 26 27  2  0  0  0  0
  8 27  1  0  0  0  0
 27 28  1  0  0  0  0
 25 29  2  0  0  0  0
 21 30  1  6  0  0  0
 20 31  2  0  0  0  0
 19 32  1  0  0  0  0
 32 33  2  0  0  0  0
 32 34  1  0  0  0  0
 16 35  1  6  0  0  0
 35 36  1  0  0  0  0
 35 37  1  0  0  0  0
 10 38  1  0  0  0  0
 38 39  1  0  0  0  0
 38 40  1  0  0  0  0
M  END
> <Molar mass [g/mol] [MProp:scalar:double]>
556.66

> <Exact mass [Da] [MProp:scalar:double]>
556.289699644

> <Formula>
C29H40N4O7

> <Composition>
C (62.57%), H (7.24%), N (10.07%), O (20.12%)

> <Lipinski's rule of five [MProp:scalar:boolean]>
false

> <Atom count [MProp:scalar:integer]>
80

> <Heavy atom count [MProp:scalar:integer]>
40

> <Asymmetric atom count [MProp:scalar:integer]>
5

> <Rotatable bond count [MProp:scalar:integer]>
7

> <Ring count [MProp:scalar:integer]>
4

> <Aromatic ring count [MProp:scalar:integer]>
1

> <Hetero ring count [MProp:scalar:integer]>
0

> <FSP3 [MProp:scalar:double]>
0.59

> <Hydrogen bond donor count [MProp:scalar:integer]>
5

> <Hydrogen bond acceptor count [MProp:scalar:integer]>
10

> <Formal charge [MProp:scalar:integer]>
0

> <Topological polar surface area [A^2] [MProp:scalar:double]>
173.5

> <Polarizability [A^3] [MProp:scalar:double]>
57.68

> <Molar refractivity [cm^3/mol] [MProp:scalar:double]>
151.83

> <Van der Waals volume [A^3] [MProp:scalar:double]>
516.49

> <Minimum projection area [A^2] [MProp:scalar:double]>
85.6

> <Maximum projection area [A^2] [MProp:scalar:double]>
126.58

> <Minimum projection radius [A] [MProp:scalar:double]>
6.45

> <Maximum projection radius [A] [MProp:scalar:double]>
8.19

> <Van der Waals surface area [A^2] [MProp:scalar:double]>
830.83

> <Solvent accessible surface area [A^2] [MProp:scalar:double]>
737.19

> <Strongest acidic pKa [MProp:scalar:double]>
5.9

> <Strongest basic pKa [MProp:scalar:double]>
10.66

> <Isoelectric point [MProp:scalar:double]>
7.3

> <Intrinsic solubility [logS] [MProp:scalar:double]>
-2.57

> <Solubility category>
High

> <logP [MProp:scalar:double]>
-0.57

> <logD_PH0 [MProp:scalar:double]>
-8.98

> <logD_PH1 [MProp:scalar:double]>
-8.2

> <logD_PH2 [MProp:scalar:double]>
-7.68

> <logD_PH3 [MProp:scalar:double]>
-6.73

> <logD_PH4 [MProp:scalar:double]>
-5.1

> <logD_PH5 [MProp:scalar:double]>
-3.3

> <logD_PH6 [MProp:scalar:double]>
-1.73

> <logD_PH7 [MProp:scalar:double]>
-0.65

> <logD_PH8 [MProp:scalar:double]>
-0.57

> <logD_PH9 [MProp:scalar:double]>
-1.35

> <logD_PH10 [MProp:scalar:double]>
-2.56

> <logD_PH11 [MProp:scalar:double]>
-3.92

> <logD_PH12 [MProp:scalar:double]>
-5.21

> <logD_PH13 [MProp:scalar:double]>
-6.27

> <logD_PH14 [MProp:scalar:double]>
-7.26

> <HLB [MProp:scalar:double]>
24.02

> <IUPAC name>
(4S,4aS,5aR,12aS)-4,7-bis(dimethylamino)-9-{[(2,2-dimethylpropyl)amino]methyl}-10,12,12a-trihydroxy-1,3,11-trioxo-1,2,3,4,4a,5,5a,6,11,12a-decahydrotetracene-2-carboxamide

> <SMILES>
CN(C)[C@H]1[C@@H]2C[C@@H]3CC4=C(C=C(CNCC(C)(C)C)C(O)=C4C(=O)C3=C(O)[C@]2(O)C(=O)C(C(N)=O)C1=O)N(C)C

> <InChI>
InChI=1S/C29H40N4O7/c1-28(2,3)12-31-11-14-10-17(32(4)5)15-8-13-9-16-21(33(6)7)24(36)20(27(30)39)26(38)29(16,40)25(37)18(13)23(35)19(15)22(14)34/h10,13,16,20-21,31,34,37,40H,8-9,11-12H2,1-7H3,(H2,30,39)/t13-,16-,20?,21-,29-/m0/s1

> <InChIKey>
KIGNGKZFIAKSPX-MAAUTVBTSA-N

> <Traditional name>
(4S,4aS,5aR,12aS)-4,7-bis(dimethylamino)-9-{[(2,2-dimethylpropyl)amino]methyl}-10,12,12a-trihydroxy-1,3,11-trioxo-2,4,4a,5,5a,6-hexahydrotetracene-2-carboxamide

> <Common names>
N/A

> <CAS Registry Numbers(R)>
N/A

$$$$
Tetracycline
  Mrv2222 01232613222D          

 32 35  0  0  1  0            999 V2000
    1.6131   -1.0445    0.0000 C   0  0  0  0  0  0  0  0  0  0  0  0
    2.1434   -0.4125    0.0000 C   0  0  2  0  0  0  0  0  0  0  0  0
    2.8579    0.0000    0.0000 C   0  0  1  0  0  0  0  0  0  0  0  0
    3.5724   -0.4125    0.0000 C   0  0  0  0  0  0  0  0  0  0  0  0
    4.2868    0.0000    0.0000 C   0  0  1  0  0  0  0  0  0  0  0  0
    5.0013   -0.4125    0.0000 C   0  0  1  0  0  0  0  0  0  0  0  0
    5.7158    0.0000    0.0000 C   0  0  0  0  0  0  0  0  0  0  0  0
    6.4302   -0.4125    0.0000 O   0  0  0  0  0  0  0  0  0  0  0  0
    5.7158    0.8250    0.0000 C   0  0  0  0  0  0  0  0  0  0  0  0
    5.0013    1.2375    0.0000 C   0  0  0  0  0  0  0  0  0  0  0  0
    4.2868    0.8250    0.0000 C   0  0  1  0  0  0  0  0  0  0  0  0
    3.5724    1.2375    0.0000 C   0  0  0  0  0  0  0  0  0  0  0  0
    3.5724    2.0625    0.0000 O   0  0  0  0  0  0  0  0  0  0  0  0
    2.8579    0.8250    0.0000 C   0  0  0  0  0  0  0  0  0  0  0  0
    2.1434    1.2375    0.0000 C   0  0  0  0  0  0  0  0  0  0  0  0
    1.4289    0.8250    0.0000 C   0  0  0  0  0  0  0  0  0  0  0  0
    1.4289    0.0000    0.0000 C   0  0  0  0  0  0  0  0  0  0  0  0
    0.7145   -0.4125    0.0000 C   0  0  0  0  0  0  0  0  0  0  0  0
    0.0000    0.0000    0.0000 C   0  0  0  0  0  0  0  0  0  0  0  0
    0.0000    0.8250    0.0000 C   0  0  0  0  0  0  0  0  0  0  0  0
    0.7145    1.2375    0.0000 C   0  0  0  0  0  0  0  0  0  0  0  0
    0.7145    2.0625    0.0000 O   0  0  0  0  0  0  0  0  0  0  0  0
    2.1434    2.0625    0.0000 O   0  0  0  0  0  0  0  0  0  0  0  0
    4.2868    1.6500    0.0000 O   0  0  0  0  0  0  0  0  0  0  0  0
    5.0013    2.0625    0.0000 O   0  0  0  0  0  0  0  0  0  0  0  0
    6.4302    1.2375    0.0000 C   0  0  0  0  0  0  0  0  0  0  0  0
    6.4302    2.0625    0.0000 O   0  0  0  0  0  0  0  0  0  0  0  0
    7.1447    0.8250    0.0000 N   0  0  0  0  0  0  0  0  0  0  0  0
    5.0013   -1.2375    0.0000 N   0  0  0  0  0  0  0  0  0  0  0  0
    5.7158   -1.6500    0.0000 C   0  0  0  0  0  0  0  0  0  0  0  0
    4.2868   -1.6500    0.0000 C   0  0  0  0  0  0  0  0  0  0  0  0
    2.6737   -1.0445    0.0000 O   0  0  0  0  0  0  0  0  0  0  0  0
  2  1  1  1  0  0  0
  2  3  1  0  0  0  0
  3  4  1  6  0  0  0
  5  4  1  6  0  0  0
  5  6  1  0  0  0  0
  6  7  1  0  0  0  0
  7  8  2  0  0  0  0
  7  9  1  0  0  0  0
  9 10  1  0  0  0  0
 11 10  1  0  0  0  0
  5 11  1  0  0  0  0
 11 12  1  0  0  0  0
 12 13  1  0  0  0  0
 12 14  2  0  0  0  0
  3 14  1  0  0  0  0
 14 15  1  0  0  0  0
 15 16  1  0  0  0  0
 16 17  2  0  0  0  0
  2 17  1  0  0  0  0
 17 18  1  0  0  0  0
 18 19  2  0  0  0  0
 19 20  1  0  0  0  0
 20 21  2  0  0  0  0
 16 21  1  0  0  0  0
 21 22  1  0  0  0  0
 15 23  2  0  0  0  0
 11 24  1  1  0  0  0
 10 25  2  0  0  0  0
  9 26  1  0  0  0  0
 26 27  2  0  0  0  0
 26 28  1  0  0  0  0
  6 29  1  1  0  0  0
 29 30  1  0  0  0  0
 29 31  1  0  0  0  0
  2 32  1  6  0  0  0
M  END
> <Molar mass [g/mol] [MProp:scalar:double]>
444.44

> <Exact mass [Da] [MProp:scalar:double]>
444.153265741

> <Formula>
C22H24N2O8

> <Composition>
C (59.46%), H (5.44%), N (6.30%), O (28.80%)

> <Lipinski's rule of five [MProp:scalar:boolean]>
true

> <Atom count [MProp:scalar:integer]>
56

> <Heavy atom count [MProp:scalar:integer]>
32

> <Asymmetric atom count [MProp:scalar:integer]>
6

> <Rotatable bond count [MProp:scalar:integer]>
2

> <Ring count [MProp:scalar:integer]>
4

> <Aromatic ring count [MProp:scalar:integer]>
1

> <Hetero ring count [MProp:scalar:integer]>
0

> <FSP3 [MProp:scalar:double]>
0.45

> <Hydrogen bond donor count [MProp:scalar:integer]>
5

> <Hydrogen bond acceptor count [MProp:scalar:integer]>
9

> <Formal charge [MProp:scalar:integer]>
0

> <Topological polar surface area [A^2] [MProp:scalar:double]>
178.46

> <Polarizability [A^3] [MProp:scalar:double]>
42.92

> <Molar refractivity [cm^3/mol] [MProp:scalar:double]>
112.09

> <Van der Waals volume [A^3] [MProp:scalar:double]>
380.68

> <Minimum projection area [A^2] [MProp:scalar:double]>
64.84

> <Maximum projection area [A^2] [MProp:scalar:double]>
96.45

> <Minimum projection radius [A] [MProp:scalar:double]>
5.25

> <Maximum projection radius [A] [MProp:scalar:double]>
6.61

> <Van der Waals surface area [A^2] [MProp:scalar:double]>
578.9

> <Solvent accessible surface area [A^2] [MProp:scalar:double]>
516.91

> <Strongest acidic pKa [MProp:scalar:double]>
6.29

> <Strongest basic pKa [MProp:scalar:double]>
7.97

> <Isoelectric point [MProp:scalar:double]>
6.37

> <Intrinsic solubility [logS] [MProp:scalar:double]>
-2.47

> <Solubility category>
High

> <logP [MProp:scalar:double]>
-0.88

> <logD_PH0 [MProp:scalar:double]>
-4.84

> <logD_PH1 [MProp:scalar:double]>
-4.08

> <logD_PH2 [MProp:scalar:double]>
-3.78

> <logD_PH3 [MProp:scalar:double]>
-3.52

> <logD_PH4 [MProp:scalar:double]>
-2.83

> <logD_PH5 [MProp:scalar:double]>
-1.9

> <logD_PH6 [MProp:scalar:double]>
-1.07

> <logD_PH7 [MProp:scalar:double]>
-0.88

> <logD_PH8 [MProp:scalar:double]>
-1.75

> <logD_PH9 [MProp:scalar:double]>
-3.39

> <logD_PH10 [MProp:scalar:double]>
-5.05

> <logD_PH11 [MProp:scalar:double]>
-6.52

> <logD_PH12 [MProp:scalar:double]>
-7.6

> <logD_PH13 [MProp:scalar:double]>
-8.46

> <logD_PH14 [MProp:scalar:double]>
-9.6

> <HLB [MProp:scalar:double]>
21.6

> <IUPAC name>
(4S,4aS,5aS,6S,12aS)-4-(dimethylamino)-6,10,12,12a-tetrahydroxy-6-methyl-1,3,11-trioxo-1,2,3,4,4a,5,5a,6,11,12a-decahydrotetracene-2-carboxamide

> <SMILES>
CN(C)[C@H]1[C@@H]2C[C@H]3C(=C(O)[C@]2(O)C(=O)C(C(N)=O)C1=O)C(=O)C1=C(C=CC=C1O)[C@@]3(C)O

> <InChI>
InChI=1S/C22H24N2O8/c1-21(31)8-5-4-6-11(25)12(8)16(26)13-9(21)7-10-15(24(2)3)17(27)14(20(23)30)19(29)22(10,32)18(13)28/h4-6,9-10,14-15,25,28,31-32H,7H2,1-3H3,(H2,23,30)/t9-,10-,14?,15-,21-,22-/m0/s1

> <InChIKey>
YRKNPFVJGRPARO-XWDZYTQJSA-N

> <Traditional name>
(4S,4aS,5aS,6S,12aS)-4-(dimethylamino)-6,10,12,12a-tetrahydroxy-6-methyl-1,3,11-trioxo-4,4a,5,5a-tetrahydro-2H-tetracene-2-carboxamide

> <Common names>
N/A

> <CAS Registry Numbers(R)>
N/A

$$$$
Tigecycline
  Mrv2222 01232613222D          

 42 45  0  0  1  0            999 V2000
   -0.7145   -7.0125    0.0000 C   0  0  0  0  0  0  0  0  0  0  0  0
    0.0000   -6.6000    0.0000 C   0  0  0  0  0  0  0  0  0  0  0  0
    0.4125   -7.3145    0.0000 C   0  0  0  0  0  0  0  0  0  0  0  0
   -0.4125   -5.8855    0.0000 C   0  0  0  0  0  0  0  0  0  0  0  0
    0.7145   -6.1875    0.0000 N   0  0  0  0  0  0  0  0  0  0  0  0
    0.7145   -5.3625    0.0000 C   0  0  0  0  0  0  0  0  0  0  0  0
    1.4289   -4.9500    0.0000 C   0  0  0  0  0  0  0  0  0  0  0  0
    2.1434   -5.3625    0.0000 O   0  0  0  0  0  0  0  0  0  0  0  0
    1.4289   -4.1250    0.0000 N   0  0  0  0  0  0  0  0  0  0  0  0
    2.1434   -3.7125    0.0000 C   0  0  0  0  0  0  0  0  0  0  0  0
    2.1434   -2.8875    0.0000 C   0  0  0  0  0  0  0  0  0  0  0  0
    2.8579   -2.4750    0.0000 C   0  0  0  0  0  0  0  0  0  0  0  0
    3.5724   -2.8875    0.0000 C   0  0  0  0  0  0  0  0  0  0  0  0
    4.2868   -2.4750    0.0000 C   0  0  0  0  0  0  0  0  0  0  0  0
    5.0013   -2.8875    0.0000 C   0  0  1  0  0  0  0  0  0  0  0  0
    5.7158   -2.4750    0.0000 C   0  0  0  0  0  0  0  0  0  0  0  0
    6.4302   -2.8875    0.0000 C   0  0  1  0  0  0  0  0  0  0  0  0
    7.1447   -2.4750    0.0000 C   0  0  1  0  0  0  0  0  0  0  0  0
    7.8592   -2.8875    0.0000 C   0  0  0  0  0  0  0  0  0  0  0  0
    8.5737   -2.4750    0.0000 O   0  0  0  0  0  0  0  0  0  0  0  0
    7.8592   -3.7125    0.0000 C   0  0  0  0  0  0  0  0  0  0  0  0
    7.1447   -4.1250    0.0000 C   0  0  0  0  0  0  0  0  0  0  0  0
    6.4302   -3.7125    0.0000 C   0  0  1  0  0  0  0  0  0  0  0  0
    5.7158   -4.1250    0.0000 C   0  0  0  0  0  0  0  0  0  0  0  0
    5.7158   -4.9500    0.0000 O   0  0  0  0  0  0  0  0  0  0  0  0
    5.0013   -3.7125    0.0000 C   0  0  0  0  0  0  0  0  0  0  0  0
    4.2868   -4.1250    0.0000 C   0  0  0  0  0  0  0  0  0  0  0  0
    3.5724   -3.7125    0.0000 C   0  0  0  0  0  0  0  0  0  0  0  0
    2.8579   -4.1250    0.0000 C   0  0  0  0  0  0  0  0  0  0  0  0
    2.8579   -4.9500    0.0000 O   0  0  0  0  0  0  0  0  0  0  0  0
    4.2868   -4.9500    0.0000 O   0  0  0  0  0  0  0  0  0  0  0  0
    6.4302   -4.5375    0.0000 O   0  0  0  0  0  0  0  0  0  0  0  0
    7.1447   -4.9500    0.0000 O   0  0  0  0  0  0  0  0  0  0  0  0
    8.5737   -4.1250    0.0000 C   0  0  0  0  0  0  0  0  0  0  0  0
    8.5737   -4.9500    0.0000 O   0  0  0  0  0  0  0  0  0  0  0  0
    9.2881   -3.7125    0.0000 N   0  0  0  0  0  0  0  0  0  0  0  0
    7.1447   -1.6500    0.0000 N   0  0  0  0  0  0  0  0  0  0  0  0
    7.8592   -1.2375    0.0000 C   0  0  0  0  0  0  0  0  0  0  0  0
    6.4302   -1.2375    0.0000 C   0  0  0  0  0  0  0  0  0  0  0  0
    2.8579   -1.6500    0.0000 N   0  0  0  0  0  0  0  0  0  0  0  0
    3.5724   -1.2375    0.0000 C   0  0  0  0  0  0  0  0  0  0  0  0
    2.1434   -1.2375    0.0000 C   0  0  0  0  0  0  0  0  0  0  0  0
  1  2  1  0  0  0  0
  2  3  1  0  0  0  0
  2  4  1  0  0  0  0
  2  5  1  0  0  0  0
  5  6  1  0  0  0  0
  6  7  1  0  0  0  0
  7  8  2  0  0  0  0
  7  9  1  0  0  0  0
  9 10  1  0  0  0  0
 10 11  2  0  0  0  0
 11 12  1  0  0  0  0
 12 13  2  0  0  0  0
 13 14  1  0  0  0  0
 15 14  1  1  0  0  0
 15 16  1  0  0  0  0
 17 16  1  1  0  0  0
 17 18  1  0  0  0  0
 18 19  1  0  0  0  0
 19 20  2  0  0  0  0
 19 21  1  0  0  0  0
 21 22  1  0  0  0  0
 23 22  1  0  0  0  0
 17 23  1  0  0  0  0
 23 24  1  0  0  0  0
 24 25  1  0  0  0  0
 24 26  2  0  0  0  0
 15 26  1  0  0  0  0
 26 27  1  0  0  0  0
 27 28  1  0  0  0  0
 13 28  1  0  0  0  0
 28 29  2  0  0  0  0
 10 29  1  0  0  0  0
 29 30  1  0  0  0  0
 27 31  2  0  0  0  0
 23 32  1  6  0  0  0
 22 33  2  0  0  0  0
 21 34  1  0  0  0  0
 34 35  2  0  0  0  0
 34 36  1  0  0  0  0
 18 37  1  6  0  0  0
 37 38  1  0  0  0  0
 37 39  1  0  0  0  0
 12 40  1  0  0  0  0
 40 41  1  0  0  0  0
 40 42  1  0  0  0  0
M  END
> <Molar mass [g/mol] [MProp:scalar:double]>
585.658

> <Exact mass [Da] [MProp:scalar:double]>
585.279863236

> <Formula>
C29H39N5O8

> <Composition>
C (59.47%), H (6.71%), N (11.96%), O (21.85%)

> <Lipinski's rule of five [MProp:scalar:boolean]>
false

> <Atom count [MProp:scalar:integer]>
81

> <Heavy atom count [MProp:scalar:integer]>
42

> <Asymmetric atom count [MProp:scalar:integer]>
5

> <Rotatable bond count [MProp:scalar:integer]>
7

> <Ring count [MProp:scalar:integer]>
4

> <Aromatic ring count [MProp:scalar:integer]>
1

> <Hetero ring count [MProp:scalar:integer]>
0

> <FSP3 [MProp:scalar:double]>
0.55

> <Hydrogen bond donor count [MProp:scalar:integer]>
6

> <Hydrogen bond acceptor count [MProp:scalar:integer]>
11

> <Formal charge [MProp:scalar:integer]>
0

> <Topological polar surface area [A^2] [MProp:scalar:double]>
202.6

> <Polarizability [A^3] [MProp:scalar:double]>
58.94

> <Molar refractivity [cm^3/mol] [MProp:scalar:double]>
157.24

> <Van der Waals volume [A^3] [MProp:scalar:double]>
528.67

> <Minimum projection area [A^2] [MProp:scalar:double]>
82.67

> <Maximum projection area [A^2] [MProp:scalar:double]>
134.36

> <Minimum projection radius [A] [MProp:scalar:double]>
6.44

> <Maximum projection radius [A] [MProp:scalar:double]>
9.57

> <Van der Waals surface area [A^2] [MProp:scalar:double]>
846.05

> <Solvent accessible surface area [A^2] [MProp:scalar:double]>
779.67

> <Strongest acidic pKa [MProp:scalar:double]>
5.9

> <Strongest basic pKa [MProp:scalar:double]>
8.69

> <Isoelectric point [MProp:scalar:double]>
7.27

> <Intrinsic solubility [logS] [MProp:scalar:double]>
-2.6

> <Solubility category>
High

> <logP [MProp:scalar:double]>
-1.59

> <logD_PH0 [MProp:scalar:double]>
-9.29

> <logD_PH1 [MProp:scalar:double]>
-9.25

> <logD_PH2 [MProp:scalar:double]>
-8.95

> <logD_PH3 [MProp:scalar:double]>
-7.99

> <logD_PH4 [MProp:scalar:double]>
-6.35

> <logD_PH5 [MProp:scalar:double]>
-4.5

> <logD_PH6 [MProp:scalar:double]>
-2.79

> <logD_PH7 [MProp:scalar:double]>
-1.63

> <logD_PH8 [MProp:scalar:double]>
-1.59

> <logD_PH9 [MProp:scalar:double]>
-2.64

> <logD_PH10 [MProp:scalar:double]>
-4.12

> <logD_PH11 [MProp:scalar:double]>
-5.5

> <logD_PH12 [MProp:scalar:double]>
-6.64

> <logD_PH13 [MProp:scalar:double]>
-7.62

> <logD_PH14 [MProp:scalar:double]>
-8.71

> <HLB [MProp:scalar:double]>
30.41

> <IUPAC name>
(4S,4aS,5aR,12aS)-9-[2-(tert-butylamino)acetamido]-4,7-bis(dimethylamino)-10,12,12a-trihydroxy-1,3,11-trioxo-1,2,3,4,4a,5,5a,6,11,12a-decahydrotetracene-2-carboxamide

> <SMILES>
CN(C)[C@H]1[C@@H]2C[C@@H]3CC4=C(C=C(NC(=O)CNC(C)(C)C)C(O)=C4C(=O)C3=C(O)[C@]2(O)C(=O)C(C(N)=O)C1=O)N(C)C

> <InChI>
InChI=1S/C29H39N5O8/c1-28(2,3)31-11-17(35)32-15-10-16(33(4)5)13-8-12-9-14-21(34(6)7)24(38)20(27(30)41)26(40)29(14,42)25(39)18(12)23(37)19(13)22(15)36/h10,12,14,20-21,31,36,39,42H,8-9,11H2,1-7H3,(H2,30,41)(H,32,35)/t12-,14-,20?,21-,29-/m0/s1

> <InChIKey>
LQQYICBWGHYRRN-QCERJBSOSA-N

> <Traditional name>
(4S,4aS,5aR,12aS)-9-[2-(tert-butylamino)acetamido]-4,7-bis(dimethylamino)-10,12,12a-trihydroxy-1,3,11-trioxo-2,4,4a,5,5a,6-hexahydrotetracene-2-carboxamide

> <Common names>
N/A

> <CAS Registry Numbers(R)>
N/A

$$$$
Chlortetracycline
  Mrv2222 01232613222D          

 33 36  0  0  1  0            999 V2000
    1.6131    1.8695    0.0000 C    0  0  0  0  0  0  0  0  0  0  0  0
    2.1434    1.2375    0.0000 C    0  0  2  0  0  0  0  0  0  0  0  0
    2.8579    0.8250    0.0000 C    0  0  1  0  0  0  0  0  0  0  0  0
    3.5724    1.2375    0.0000 C    0  0  0  0  0  0  0  0  0  0  0  0
    4.2868    0.8250    0.0000 C    0  0  1  0  0  0  0  0  0  0  0  0
    5.0013    1.2375    0.0000 C    0  0  1  0  0  0  0  0  0  0  0  0
    5.7158    0.8250    0.0000 C    0  0  0  0  0  0  0  0  0  0  0  0
    6.4302    1.2375    0.0000 O    0  0  0  0  0  0  0  0  0  0  0  0
    5.7158    0.0000    0.0000 C    0  0  0  0  0  0  0  0  0  0  0  0
    5.0013   -0.4125    0.0000 C    0  0  0  0  0  0  0  0  0  0  0  0
    4.2868    0.0000    0.0000 C    0  0  1  0  0  0  0  0  0  0  0  0
    3.5724   -0.4125    0.0000 C    0  0  0  0  0  0  0  0  0  0  0  0
    3.5724   -1.2375    0.0000 O    0  0  0  0  0  0  0  0  0  0  0  0
    2.8579    0.0000    0.0000 C    0  0  0  0  0  0  0  0  0  0  0  0
    2.1434   -0.4125    0.0000 C    0  0  0  0  0  0  0  0  0  0  0  0
    1.4289    0.0000    0.0000 C    0  0  0  0  0  0  0  0  0  0  0  0
    0.7145   -0.4125    0.0000 C    0  0  0  0  0  0  0  0  0  0  0  0
    0.0000    0.0000    0.0000 C    0  0  0  0  0  0  0  0  0  0  0  0
    0.0000    0.8250    0.0000 C    0  0  0  0  0  0  0  0  0  0  0  0
    0.7145    1.2375    0.0000 C    0  0  0  0  0  0  0  0  0  0  0  0
    1.4289    0.8250    0.0000 C    0  0  0  0  0  0  0  0  0  0  0  0
    0.7145    2.0625    0.0000 Cl   0  0  0  0  0  0  0  0  0  0  0  0
    0.7145   -1.2375    0.0000 O    0  0  0  0  0  0  0  0  0  0  0  0
    2.1434   -1.2375    0.0000 O    0  0  0  0  0  0  0  0  0  0  0  0
    4.2868   -0.8250    0.0000 O    0  0  0  0  0  0  0  0  0  0  0  0
    5.0013   -1.2375    0.0000 O    0  0  0  0  0  0  0  0  0  0  0  0
    6.4302   -0.4125    0.0000 C    0  0  0  0  0  0  0  0  0  0  0  0
    7.1447    0.0000    0.0000 O    0  0  0  0  0  0  0  0  0  0  0  0
    6.4302   -1.2375    0.0000 N    0  0  0  0  0  0  0  0  0  0  0  0
    5.0013    2.0625    0.0000 N    0  0  0  0  0  0  0  0  0  0  0  0
    5.7158    2.4750    0.0000 C    0  0  0  0  0  0  0  0  0  0  0  0
    4.2868    2.4750    0.0000 C    0  0  0  0  0  0  0  0  0  0  0  0
    2.6737    1.8695    0.0000 O    0  0  0  0  0  0  0  0  0  0  0  0
  2  1  1  6  0  0  0
  2  3  1  0  0  0  0
  3  4  1  1  0  0  0
  5  4  1  1  0  0  0
  5  6  1  0  0  0  0
  6  7  1  0  0  0  0
  7  8  2  0  0  0  0
  7  9  1  0  0  0  0
  9 10  1  0  0  0  0
 11 10  1  0  0  0  0
  5 11  1  0  0  0  0
 11 12  1  0  0  0  0
 12 13  1  0  0  0  0
 12 14  2  0  0  0  0
  3 14  1  0  0  0  0
 14 15  1  0  0  0  0
 15 16  1  0  0  0  0
 16 17  2  0  0  0  0
 17 18  1  0  0  0  0
 18 19  2  0  0  0  0
 19 20  1  0  0  0  0
 20 21  2  0  0  0  0
 16 21  1  0  0  0  0
  2 21  1  0  0  0  0
 20 22  1  0  0  0  0
 17 23  1  0  0  0  0
 15 24  2  0  0  0  0
 11 25  1  6  0  0  0
 10 26  2  0  0  0  0
  9 27  1  0  0  0  0
 27 28  2  0  0  0  0
 27 29  1  0  0  0  0
  6 30  1  6  0  0  0
 30 31  1  0  0  0  0
 30 32  1  0  0  0  0
  2 33  1  1  0  0  0
M  END
> <Molar mass [g/mol] [MProp:scalar:double]>
478.88

> <Exact mass [Da] [MProp:scalar:double]>
478.1142934

> <Formula>
C22H23ClN2O8

> <Composition>
C (55.18%), H (4.84%), Cl (7.40%), N (5.85%), O (26.73%)

> <Lipinski's rule of five [MProp:scalar:boolean]>
true

> <Atom count [MProp:scalar:integer]>
56

> <Heavy atom count [MProp:scalar:integer]>
33

> <Asymmetric atom count [MProp:scalar:integer]>
6

> <Rotatable bond count [MProp:scalar:integer]>
2

> <Ring count [MProp:scalar:integer]>
4

> <Aromatic ring count [MProp:scalar:integer]>
1

> <Hetero ring count [MProp:scalar:integer]>
0

> <FSP3 [MProp:scalar:double]>
0.45

> <Hydrogen bond donor count [MProp:scalar:integer]>
5

> <Hydrogen bond acceptor count [MProp:scalar:integer]>
9

> <Formal charge [MProp:scalar:integer]>
0

> <Topological polar surface area [A^2] [MProp:scalar:double]>
178.46

> <Polarizability [A^3] [MProp:scalar:double]>
44.86

> <Molar refractivity [cm^3/mol] [MProp:scalar:double]>
116.89

> <Van der Waals volume [A^3] [MProp:scalar:double]>
394.8

> <Minimum projection area [A^2] [MProp:scalar:double]>
65.36

> <Maximum projection area [A^2] [MProp:scalar:double]>
100.41

> <Minimum projection radius [A] [MProp:scalar:double]>
5.34

> <Maximum projection radius [A] [MProp:scalar:double]>
6.53

> <Van der Waals surface area [A^2] [MProp:scalar:double]>
593.71

> <Solvent accessible surface area [A^2] [MProp:scalar:double]>
528.78

> <Strongest acidic pKa [MProp:scalar:double]>
7.01

> <Strongest basic pKa [MProp:scalar:double]>
6.24

> <Isoelectric point [MProp:scalar:double]>
6.27

> <Intrinsic solubility [logS] [MProp:scalar:double]>
-3.1

> <Solubility category>
High

> <logP [MProp:scalar:double]>
-0.39

> <logD_PH0 [MProp:scalar:double]>
-4.23

> <logD_PH1 [MProp:scalar:double]>
-3.48

> <logD_PH2 [MProp:scalar:double]>
-3.17

> <logD_PH3 [MProp:scalar:double]>
-2.92

> <logD_PH4 [MProp:scalar:double]>
-2.23

> <logD_PH5 [MProp:scalar:double]>
-1.3

> <logD_PH6 [MProp:scalar:double]>
-0.49

> <logD_PH7 [MProp:scalar:double]>
-0.39

> <logD_PH8 [MProp:scalar:double]>
-1.39

> <logD_PH9 [MProp:scalar:double]>
-3.12

> <logD_PH10 [MProp:scalar:double]>
-4.95

> <logD_PH11 [MProp:scalar:double]>
-6.35

> <logD_PH12 [MProp:scalar:double]>
-7.22

> <logD_PH13 [MProp:scalar:double]>
-7.91

> <logD_PH14 [MProp:scalar:double]>
-9.07

> <HLB [MProp:scalar:double]>
21.42

> <IUPAC name>
(4S,4aS,5aS,6S,12aS)-7-chloro-4-(dimethylamino)-6,10,12,12a-tetrahydroxy-6-methyl-1,3,11-trioxo-1,2,3,4,4a,5,5a,6,11,12a-decahydrotetracene-2-carboxamide

> <SMILES>
CN(C)[C@H]1[C@@H]2C[C@H]3C(=C(O)[C@]2(O)C(=O)C(C(N)=O)C1=O)C(=O)C1=C(O)C=CC(Cl)=C1[C@@]3(C)O

> <InChI>
InChI=1S/C22H23ClN2O8/c1-21(32)7-6-8-15(25(2)3)17(28)13(20(24)31)19(30)22(8,33)18(29)11(7)16(27)12-10(26)5-4-9(23)14(12)21/h4-5,7-8,13,15,26,29,32-33H,6H2,1-3H3,(H2,24,31)/t7-,8-,13?,15-,21+,22-/m0/s1

> <InChIKey>
MEZIVKABOVFXMK-CMNNWKKISA-N

> <Traditional name>
(4S,4aS,5aS,6S,12aS)-7-chloro-4-(dimethylamino)-6,10,12,12a-tetrahydroxy-6-methyl-1,3,11-trioxo-4,4a,5,5a-tetrahydro-2H-tetracene-2-carboxamide

> <Common names>
N/A

> <CAS Registry Numbers(R)>
N/A

$$$$
Ofloxacin
  Mrv2222 01232613222D          

 26 29  0  0  0  0            999 V2000
   -1.4289    0.0000    0.0000 C   0  0  0  0  0  0  0  0  0  0  0  0
   -0.7145   -0.4125    0.0000 C   0  0  0  0  0  0  0  0  0  0  0  0
   -0.7145   -1.2375    0.0000 C   0  0  0  0  0  0  0  0  0  0  0  0
    0.0000   -1.6500    0.0000 O   0  0  0  0  0  0  0  0  0  0  0  0
    0.7145   -1.2375    0.0000 C   0  0  0  0  0  0  0  0  0  0  0  0
    0.7145   -0.4125    0.0000 C   0  0  0  0  0  0  0  0  0  0  0  0
    0.0000    0.0000    0.0000 N   0  0  0  0  0  0  0  0  0  0  0  0
    0.0000    0.8250    0.0000 C   0  0  0  0  0  0  0  0  0  0  0  0
    0.7145    1.2375    0.0000 C   0  0  0  0  0  0  0  0  0  0  0  0
    1.4289    0.8250    0.0000 C   0  0  0  0  0  0  0  0  0  0  0  0
    2.1434    1.2375    0.0000 O   0  0  0  0  0  0  0  0  0  0  0  0
    1.4289    0.0000    0.0000 C   0  0  0  0  0  0  0  0  0  0  0  0
    2.1434   -0.4125    0.0000 C   0  0  0  0  0  0  0  0  0  0  0  0
    2.1434   -1.2375    0.0000 C   0  0  0  0  0  0  0  0  0  0  0  0
    1.4289   -1.6500    0.0000 C   0  0  0  0  0  0  0  0  0  0  0  0
    1.4289   -2.4750    0.0000 N   0  0  0  0  0  0  0  0  0  0  0  0
    2.1434   -2.8875    0.0000 C   0  0  0  0  0  0  0  0  0  0  0  0
    2.1434   -3.7125    0.0000 C   0  0  0  0  0  0  0  0  0  0  0  0
    1.4289   -4.1250    0.0000 N   0  0  0  0  0  0  0  0  0  0  0  0
    0.7145   -3.7125    0.0000 C   0  0  0  0  0  0  0  0  0  0  0  0
    0.7145   -2.8875    0.0000 C   0  0  0  0  0  0  0  0  0  0  0  0
    1.4289   -4.9500    0.0000 C   0  0  0  0  0  0  0  0  0  0  0  0
    2.8579   -1.6500    0.0000 F   0  0  0  0  0  0  0  0  0  0  0  0
    0.7145    2.0625    0.0000 C   0  0  0  0  0  0  0  0  0  0  0  0
    0.0000    2.4750    0.0000 O   0  0  0  0  0  0  0  0  0  0  0  0
    1.4289    2.4750    0.0000 O   0  0  0  0  0  0  0  0  0  0  0  0
  1  2  1  0  0  0  0
  2  3  1  0  0  0  0
  3  4  1  0  0  0  0
  4  5  1  0  0  0  0
  5  6  2  0  0  0  0
  6  7  1  0  0  0  0
  2  7  1  0  0  0  0
  7  8  1  0  0  0  0
  8  9  2  0  0  0  0
  9 10  1  0  0  0  0
 10 11  2  0  0  0  0
 10 12  1  0  0  0  0
  6 12  1  0  0  0  0
 12 13  2  0  0  0  0
 13 14  1  0  0  0  0
 14 15  2  0  0  0  0
  5 15  1  0  0  0  0
 15 16  1  0  0  0  0
 16 17  1  0  0  0  0
 17 18  1  0  0  0  0
 18 19  1  0  0  0  0
 19 20  1  0  0  0  0
 20 21  1  0  0  0  0
 16 21  1  0  0  0  0
 19 22  1  0  0  0  0
 14 23  1  0  0  0  0
  9 24  1  0  0  0  0
 24 25  2  0  0  0  0
 24 26  1  0  0  0  0
M  END
> <Molar mass [g/mol] [MProp:scalar:double]>
361.373

> <Exact mass [Da] [MProp:scalar:double]>
361.143784299

> <Formula>
C18H20FN3O4

> <Composition>
C (59.83%), H (5.58%), F (5.26%), N (11.63%), O (17.71%)

> <Lipinski's rule of five [MProp:scalar:boolean]>
true

> <Atom count [MProp:scalar:integer]>
46

> <Heavy atom count [MProp:scalar:integer]>
26

> <Asymmetric atom count [MProp:scalar:integer]>
1

> <Rotatable bond count [MProp:scalar:integer]>
2

> <Ring count [MProp:scalar:integer]>
4

> <Aromatic ring count [MProp:scalar:integer]>
2

> <Hetero ring count [MProp:scalar:integer]>
3

> <FSP3 [MProp:scalar:double]>
0.44

> <Hydrogen bond donor count [MProp:scalar:integer]>
1

> <Hydrogen bond acceptor count [MProp:scalar:integer]>
7

> <Formal charge [MProp:scalar:integer]>
0

> <Topological polar surface area [A^2] [MProp:scalar:double]>
73.32

> <Polarizability [A^3] [MProp:scalar:double]>
34.82

> <Molar refractivity [cm^3/mol] [MProp:scalar:double]>
94.94

> <Van der Waals volume [A^3] [MProp:scalar:double]>
309.8

> <Minimum projection area [A^2] [MProp:scalar:double]>
44.64

> <Maximum projection area [A^2] [MProp:scalar:double]>
101.07

> <Minimum projection radius [A] [MProp:scalar:double]>
5.06

> <Maximum projection radius [A] [MProp:scalar:double]>
8.21

> <Van der Waals surface area [A^2] [MProp:scalar:double]>
487.54

> <Solvent accessible surface area [A^2] [MProp:scalar:double]>
520.93

> <Strongest acidic pKa [MProp:scalar:double]>
5.77

> <Strongest basic pKa [MProp:scalar:double]>
8.31

> <Isoelectric point [MProp:scalar:double]>
7.19

> <Intrinsic solubility [logS] [MProp:scalar:double]>
-2.25

> <Solubility category>
High

> <logP [MProp:scalar:double]>
-0.8

> <logD_PH0 [MProp:scalar:double]>
-1.94

> <logD_PH1 [MProp:scalar:double]>
-1.94

> <logD_PH2 [MProp:scalar:double]>
-1.94

> <logD_PH3 [MProp:scalar:double]>
-1.93

> <logD_PH4 [MProp:scalar:double]>
-1.85

> <logD_PH5 [MProp:scalar:double]>
-1.46

> <logD_PH6 [MProp:scalar:double]>
-0.95

> <logD_PH7 [MProp:scalar:double]>
-0.8

> <logD_PH8 [MProp:scalar:double]>
-0.92

> <logD_PH9 [MProp:scalar:double]>
-1.42

> <logD_PH10 [MProp:scalar:double]>
-1.86

> <logD_PH11 [MProp:scalar:double]>
-1.96

> <logD_PH12 [MProp:scalar:double]>
-1.97

> <logD_PH13 [MProp:scalar:double]>
-1.97

> <logD_PH14 [MProp:scalar:double]>
-1.97

> <HLB [MProp:scalar:double]>
14.68

> <IUPAC name>
7-fluoro-2-methyl-6-(4-methylpiperazin-1-yl)-10-oxo-4-oxa-1-azatricyclo[7.3.1.0⁵,¹³]trideca-5(13),6,8,11-tetraene-11-carboxylic acid

> <SMILES>
CC1COC2=C3N1C=C(C(O)=O)C(=O)C3=CC(F)=C2N1CCN(C)CC1

> <InChI>
InChI=1/C18H20FN3O4/c1-10-9-26-17-14-11(16(23)12(18(24)25)8-22(10)14)7-13(19)15(17)21-5-3-20(2)4-6-21/h7-8,10H,3-6,9H2,1-2H3,(H,24,25)

> <InChIKey>
GSDSWSVVBLHKDQ-UHFFFAOYNA-N

> <Traditional name>
ofloxacin

> <Common names>
(S)-isomer ofloxacin; (s)-isomer ofloxacin; (s)-ofloxacin; O-flox; OFLX; Ofus; akilen; baccidal; bactocin; danoflox; effexin; exocin; exocine; flobacin; flodemex; flotavid; flovid; floxal; floxil; floxin otic; floxstat; fugacin; inoflox; kinflocin; kinoxacin; levofloxacin (product); levofloxacin (substance); levofloxacin preparation; liflox; loxinter; marfloxacin; medofloxine; mergexin; novecin; nufafloqo; obide; occidal; ofcin; oflin; oflocee; oflocet; oflocin; oflodal; oflodex; oflodura; oflox; ofloxacin; ofloxacin (product); ofloxacin (substance); ofloxacin otic; ofloxacin preparation; ofloxacin, (S)-; ofloxacin, (S)-isomer; ofloxacin, (s)-; ofloxacin, (s)-isomer; ofloxacina; ofloxacine; ofloxacino; ofloxacinum; ofloxin; onexacin; operan; orocin; otonil; oxaldin; pharflox; praxin; puiritol; qinolon; qipro; quinolon; quotavil; rilox; sinflo; tabrin; taravid; tariflox; tarivid; telbit; tructum; uro tarivid; viotisone; visiren; zanocin

> <CAS Registry Numbers(R)>
82419-36-1, 83380-47-6

$$$$
Tigemonam
  Mrv2222 01232613222D          

 28 29  0  0  1  0            999 V2000
    3.1928    0.2759    0.0000 C   0  0  0  0  0  0  0  0  0  0  0  0
    3.7762   -0.3074    0.0000 C   0  0  0  0  0  0  0  0  0  0  0  0
    4.3595   -0.8908    0.0000 C   0  0  1  0  0  0  0  0  0  0  0  0
    3.7762   -1.4742    0.0000 C   0  0  0  0  0  0  0  0  0  0  0  0
    3.7762   -2.2992    0.0000 O   0  0  0  0  0  0  0  0  0  0  0  0
    3.1928   -0.8908    0.0000 N   0  0  0  0  0  0  0  0  0  0  0  0
    2.3678   -0.8908    0.0000 O   0  0  0  0  0  0  0  0  0  0  0  0
    1.9553   -0.1763    0.0000 S   0  0  0  0  0  0  0  0  0  0  0  0
    1.5428    0.5381    0.0000 O   0  0  0  0  0  0  0  0  0  0  0  0
    1.2408   -0.5888    0.0000 O   0  0  0  0  0  0  0  0  0  0  0  0
    2.6698    0.2362    0.0000 O   0  0  0  0  0  0  0  0  0  0  0  0
    5.1845   -0.8908    0.0000 N   0  0  0  0  0  0  0  0  0  0  0  0
    5.5970   -0.1763    0.0000 C   0  0  0  0  0  0  0  0  0  0  0  0
    5.1845    0.5381    0.0000 O   0  0  0  0  0  0  0  0  0  0  0  0
    6.4220   -0.1763    0.0000 C   0  0  0  0  0  0  0  0  0  0  0  0
    6.8345    0.5381    0.0000 N   0  0  0  0  0  0  0  0  0  0  0  0
    6.4220    1.2526    0.0000 O   0  0  0  0  0  0  0  0  0  0  0  0
    5.5970    1.2526    0.0000 C   0  0  0  0  0  0  0  0  0  0  0  0
    5.1845    1.9671    0.0000 C   0  0  0  0  0  0  0  0  0  0  0  0
    5.5970    2.6815    0.0000 O   0  0  0  0  0  0  0  0  0  0  0  0
    4.3595    1.9671    0.0000 O   0  0  0  0  0  0  0  0  0  0  0  0
    6.8345   -0.8908    0.0000 C   0  0  0  0  0  0  0  0  0  0  0  0
    7.6550   -0.9770    0.0000 C   0  0  0  0  0  0  0  0  0  0  0  0
    7.8265   -1.7840    0.0000 S   0  0  0  0  0  0  0  0  0  0  0  0
    7.1121   -2.1965    0.0000 C   0  0  0  0  0  0  0  0  0  0  0  0
    6.4990   -1.6445    0.0000 N   0  0  0  0  0  0  0  0  0  0  0  0
    7.0258   -3.0170    0.0000 N   0  0  0  0  0  0  0  0  0  0  0  0
    4.3595    0.2759    0.0000 C   0  0  0  0  0  0  0  0  0  0  0  0
  1  2  1  0  0  0  0
  3  2  1  0  0  0  0
  3  4  1  0  0  0  0
  4  5  2  0  0  0  0
  4  6  1  0  0  0  0
  2  6  1  0  0  0  0
  6  7  1  0  0  0  0
  7  8  1  0  0  0  0
  8  9  2  0  0  0  0
  8 10  2  0  0  0  0
  8 11  1  0  0  0  0
  3 12  1  6  0  0  0
 12 13  1  0  0  0  0
 13 14  2  0  0  0  0
 13 15  1  0  0  0  0
 15 16  2  0  0  0  0
 16 17  1  0  0  0  0
 17 18  1  0  0  0  0
 18 19  1  0  0  0  0
 19 20  2  0  0  0  0
 19 21  1  0  0  0  0
 15 22  1  0  0  0  0
 22 23  2  0  0  0  0
 23 24  1  0  0  0  0
 24 25  1  0  0  0  0
 25 26  2  0  0  0  0
 22 26  1  0  0  0  0
 25 27  1  0  0  0  0
  2 28  1  0  0  0  0
M  END
> <Molar mass [g/mol] [MProp:scalar:double]>
437.4

> <Exact mass [Da] [MProp:scalar:double]>
437.031119431

> <Formula>
C12H15N5O9S2

> <Composition>
C (32.95%), H (3.46%), N (16.01%), O (32.92%), S (14.66%)

> <Lipinski's rule of five [MProp:scalar:boolean]>
false

> <Atom count [MProp:scalar:integer]>
43

> <Heavy atom count [MProp:scalar:integer]>
28

> <Asymmetric atom count [MProp:scalar:integer]>
1

> <Rotatable bond count [MProp:scalar:integer]>
8

> <Ring count [MProp:scalar:integer]>
2

> <Aromatic ring count [MProp:scalar:integer]>
1

> <Hetero ring count [MProp:scalar:integer]>
2

> <FSP3 [MProp:scalar:double]>
0.42

> <Hydrogen bond donor count [MProp:scalar:integer]>
4

> <Hydrogen bond acceptor count [MProp:scalar:integer]>
11

> <Formal charge [MProp:scalar:integer]>
0

> <Topological polar surface area [A^2] [MProp:scalar:double]>
210.81

> <Polarizability [A^3] [MProp:scalar:double]>
35.49

> <Molar refractivity [cm^3/mol] [MProp:scalar:double]>
89.77

> <Van der Waals volume [A^3] [MProp:scalar:double]>
327.67

> <Minimum projection area [A^2] [MProp:scalar:double]>
54.71

> <Maximum projection area [A^2] [MProp:scalar:double]>
103.87

> <Minimum projection radius [A] [MProp:scalar:double]>
5.87

> <Maximum projection radius [A] [MProp:scalar:double]>
8.21

> <Van der Waals surface area [A^2] [MProp:scalar:double]>
524.72

> <Solvent accessible surface area [A^2] [MProp:scalar:double]>
613.47

> <Strongest acidic pKa [MProp:scalar:double]>
-2.33

> <Strongest basic pKa [MProp:scalar:double]>
3.87

> <Isoelectric point [MProp:scalar:double]>
2.22

> <Intrinsic solubility [logS] [MProp:scalar:double]>
-3.09

> <Solubility category>
High

> <logP [MProp:scalar:double]>
-4.1

> <logD_PH0 [MProp:scalar:double]>
-7.1

> <logD_PH1 [MProp:scalar:double]>
-5.31

> <logD_PH2 [MProp:scalar:double]>
-4.1

> <logD_PH3 [MProp:scalar:double]>
-3.84

> <logD_PH4 [MProp:scalar:double]>
-4.16

> <logD_PH5 [MProp:scalar:double]>
-4.96

> <logD_PH6 [MProp:scalar:double]>
-5.89

> <logD_PH7 [MProp:scalar:double]>
-6.59

> <logD_PH8 [MProp:scalar:double]>
-6.81

> <logD_PH9 [MProp:scalar:double]>
-6.85

> <logD_PH10 [MProp:scalar:double]>
-6.91

> <logD_PH11 [MProp:scalar:double]>
-7.32

> <logD_PH12 [MProp:scalar:double]>
-8.39

> <logD_PH13 [MProp:scalar:double]>
-9.47

> <logD_PH14 [MProp:scalar:double]>
-10.37

> <HLB [MProp:scalar:double]>
26.1

> <IUPAC name>
2-{[(Z)-[(2-amino-1,3-thiazol-4-yl)({[(3S)-2,2-dimethyl-4-oxo-1-(sulfooxy)azetidin-3-yl]carbamoyl})methylidene]amino]oxy}acetic acid

> <SMILES>
CC1(C)[C@H](NC(=O)C(=N/OCC(O)=O)\C2=CSC(N)=N2)C(=O)N1OS(O)(=O)=O

> <InChI>
InChI=1S/C12H15N5O9S2/c1-12(2)8(10(21)17(12)26-28(22,23)24)15-9(20)7(16-25-3-6(18)19)5-4-27-11(13)14-5/h4,8H,3H2,1-2H3,(H2,13,14)(H,15,20)(H,18,19)(H,22,23,24)/b16-7-/t8-/m1/s1

> <InChIKey>
VAMSVIZLXJOLHZ-QWFSEIHXSA-N

> <Traditional name>
tigemonam

> <Common names>
tigemonam

> <CAS Registry Numbers(R)>
102507-71-1

$$$$
Lenapenem
  Mrv2222 01232613222D          

 27 29  0  0  1  0            999 V2000
    1.3385   -4.2495    0.0000 C   0  0  0  0  0  0  0  0  0  0  0  0
    0.5538   -3.9946    0.0000 C   0  0  2  0  0  0  0  0  0  0  0  0
   -0.1136   -4.4795    0.0000 C   0  0  2  0  0  0  0  0  0  0  0  0
   -0.5985   -5.1469    0.0000 C   0  0  2  0  0  0  0  0  0  0  0  0
   -1.2660   -4.6620    0.0000 C   0  0  0  0  0  0  0  0  0  0  0  0
   -2.0808   -4.7911    0.0000 O   0  0  0  0  0  0  0  0  0  0  0  0
   -0.7810   -3.9946    0.0000 N   0  0  0  0  0  0  0  0  0  0  0  0
   -0.5261   -3.2100    0.0000 C   0  0  0  0  0  0  0  0  0  0  0  0
    0.2989   -3.2100    0.0000 C   0  0  0  0  0  0  0  0  0  0  0  0
    0.7838   -2.5425    0.0000 S   0  0  0  0  0  0  0  0  0  0  0  0
    1.6043   -2.6288    0.0000 C   0  0  1  0  0  0  0  0  0  0  0  0
    2.1563   -2.0157    0.0000 C   0  0  0  0  0  0  0  0  0  0  0  0
    2.9100   -2.3512    0.0000 C   0  0  2  0  0  0  0  0  0  0  0  0
    2.8238   -3.1717    0.0000 N   0  0  0  0  0  0  0  0  0  0  0  0
    2.0168   -3.3432    0.0000 C   0  0  0  0  0  0  0  0  0  0  0  0
    3.6245   -1.9387    0.0000 C   0  0  1  0  0  0  0  0  0  0  0  0
    4.3390   -2.3512    0.0000 C   0  0  0  0  0  0  0  0  0  0  0  0
    5.0534   -1.9387    0.0000 C   0  0  0  0  0  0  0  0  0  0  0  0
    5.7679   -2.3512    0.0000 N   0  0  0  0  0  0  0  0  0  0  0  0
    6.4824   -1.9387    0.0000 C   0  0  0  0  0  0  0  0  0  0  0  0
    3.6245   -1.1137    0.0000 O   0  0  0  0  0  0  0  0  0  0  0  0
   -1.0110   -2.5425    0.0000 C   0  0  0  0  0  0  0  0  0  0  0  0
   -1.8315   -2.6288    0.0000 O   0  0  0  0  0  0  0  0  0  0  0  0
   -0.6755   -1.7888    0.0000 O   0  0  0  0  0  0  0  0  0  0  0  0
   -0.4695   -5.9618    0.0000 C   0  0  1  0  0  0  0  0  0  0  0  0
    0.3007   -6.2574    0.0000 C   0  0  0  0  0  0  0  0  0  0  0  0
   -1.1106   -6.4810    0.0000 O   0  0  0  0  0  0  0  0  0  0  0  0
  2  1  1  6  0  0  0
  3  2  1  0  0  0  0
  3  4  1  0  0  0  0
  4  5  1  0  0  0  0
  5  6  2  0  0  0  0
  5  7  1  0  0  0  0
  3  7  1  6  0  0  0
  7  8  1  0  0  0  0
  8  9  2  0  0  0  0
  2  9  1  0  0  0  0
  9 10  1  0  0  0  0
 11 10  1  1  0  0  0
 11 12  1  0  0  0  0
 13 12  1  0  0  0  0
 13 14  1  0  0  0  0
 14 15  1  0  0  0  0
 11 15  1  0  0  0  0
 13 16  1  1  0  0  0
 16 17  1  0  0  0  0
 17 18  1  0  0  0  0
 18 19  1  0  0  0  0
 19 20  1  0  0  0  0
 16 21  1  6  0  0  0
  8 22  1  0  0  0  0
 22 23  2  0  0  0  0
 22 24  1  0  0  0  0
  4 25  1  1  0  0  0
 25 26  1  0  0  0  0
 25 27  1  1  0  0  0
M  END
> <Molar mass [g/mol] [MProp:scalar:double]>
399.51

> <Exact mass [Da] [MProp:scalar:double]>
399.18279222

> <Formula>
C18H29N3O5S

> <Composition>
C (54.12%), H (7.32%), N (10.52%), O (20.02%), S (8.02%)

> <Lipinski's rule of five [MProp:scalar:boolean]>
true

> <Atom count [MProp:scalar:integer]>
56

> <Heavy atom count [MProp:scalar:integer]>
27

> <Asymmetric atom count [MProp:scalar:integer]>
7

> <Rotatable bond count [MProp:scalar:integer]>
8

> <Ring count [MProp:scalar:integer]>
3

> <Aromatic ring count [MProp:scalar:integer]>
0

> <Hetero ring count [MProp:scalar:integer]>
3

> <FSP3 [MProp:scalar:double]>
0.78

> <Hydrogen bond donor count [MProp:scalar:integer]>
5

> <Hydrogen bond acceptor count [MProp:scalar:integer]>
7

> <Formal charge [MProp:scalar:integer]>
0

> <Topological polar surface area [A^2] [MProp:scalar:double]>
122.13

> <Polarizability [A^3] [MProp:scalar:double]>
40.62

> <Molar refractivity [cm^3/mol] [MProp:scalar:double]>
103.66

> <Van der Waals volume [A^3] [MProp:scalar:double]>
360.1

> <Minimum projection area [A^2] [MProp:scalar:double]>
51.11

> <Maximum projection area [A^2] [MProp:scalar:double]>
116.74

> <Minimum projection radius [A] [MProp:scalar:double]>
5.5

> <Maximum projection radius [A] [MProp:scalar:double]>
9.78

> <Van der Waals surface area [A^2] [MProp:scalar:double]>
571.61

> <Solvent accessible surface area [A^2] [MProp:scalar:double]>
599.37

> <Strongest acidic pKa [MProp:scalar:double]>
3.75

> <Strongest basic pKa [MProp:scalar:double]>
10.11

> <Isoelectric point [MProp:scalar:double]>
9.67

> <Intrinsic solubility [logS] [MProp:scalar:double]>
-1.74

> <Solubility category>
High

> <logP [MProp:scalar:double]>
-4.83

> <logD_PH0 [MProp:scalar:double]>
-10.95

> <logD_PH1 [MProp:scalar:double]>
-10.05

> <logD_PH2 [MProp:scalar:double]>
-9.16

> <logD_PH3 [MProp:scalar:double]>
-8.48

> <logD_PH4 [MProp:scalar:double]>
-7.97

> <logD_PH5 [MProp:scalar:double]>
-7.79

> <logD_PH6 [MProp:scalar:double]>
-7.55

> <logD_PH7 [MProp:scalar:double]>
-6.85

> <logD_PH8 [MProp:scalar:double]>
-5.91

> <logD_PH9 [MProp:scalar:double]>
-5.07

> <logD_PH10 [MProp:scalar:double]>
-4.83

> <logD_PH11 [MProp:scalar:double]>
-5.28

> <logD_PH12 [MProp:scalar:double]>
-5.56

> <logD_PH13 [MProp:scalar:double]>
-5.63

> <logD_PH14 [MProp:scalar:double]>
-5.76

> <HLB [MProp:scalar:double]>
27.77

> <IUPAC name>
(4R,5S,6S)-3-{[(3S,5S)-5-[(1R)-1-hydroxy-3-(methylamino)propyl]pyrrolidin-3-yl]sulfanyl}-6-[(1R)-1-hydroxyethyl]-4-methyl-7-oxo-1-azabicyclo[3.2.0]hept-2-ene-2-carboxylic acid

> <SMILES>
CNCC[C@@H](O)[C@@H]1C[C@@H](CN1)SC1=C(N2[C@@H]([C@@H]([C@@H](C)O)C2=O)[C@H]1C)C(O)=O

> <InChI>
InChI=1S/C18H29N3O5S/c1-8-14-13(9(2)22)17(24)21(14)15(18(25)26)16(8)27-10-6-11(20-7-10)12(23)4-5-19-3/h8-14,19-20,22-23H,4-7H2,1-3H3,(H,25,26)/t8-,9-,10+,11+,12-,13-,14-/m1/s1

> <InChIKey>
PZLOCBSBEUDCPF-YJIVIRPOSA-N

> <Traditional name>
lenapenem

> <Common names>
lenapenem; 来那培南

> <CAS Registry Numbers(R)>
149951-16-6, 149882-71-3

$$$$
Sulopenem
  Mrv2222 01232613222D          

 21 23  0  0  1  0            999 V2000
   -1.5279   -1.3021    0.0000 C   0  0  0  0  0  0  0  0  0  0  0  0
   -0.7310   -1.5156    0.0000 C   0  0  2  0  0  0  0  0  0  0  0  0
   -0.1477   -0.9323    0.0000 C   0  0  2  0  0  0  0  0  0  0  0  0
    0.6773   -0.9323    0.0000 C   0  0  2  0  0  0  0  0  0  0  0  0
    0.6773   -0.1073    0.0000 N   0  0  0  0  0  0  0  0  0  0  0  0
   -0.1477   -0.1073    0.0000 C   0  0  0  0  0  0  0  0  0  0  0  0
   -0.7310    0.4761    0.0000 O   0  0  0  0  0  0  0  0  0  0  0  0
    1.4620    0.1477    0.0000 C   0  0  0  0  0  0  0  0  0  0  0  0
    1.9469   -0.5198    0.0000 C   0  0  0  0  0  0  0  0  0  0  0  0
    1.4620   -1.1872    0.0000 S   0  0  0  0  0  0  0  0  0  0  0  0
    2.7719   -0.5198    0.0000 S   0  0  0  0  0  0  0  0  0  0  0  0
    3.1844   -1.2343    0.0000 C   0  0  1  0  0  0  0  0  0  0  0  0
    4.0049   -1.3205    0.0000 C   0  0  0  0  0  0  0  0  0  0  0  0
    4.1764   -2.1275    0.0000 C   0  0  0  0  0  0  0  0  0  0  0  0
    3.4619   -2.5400    0.0000 S   0  0  1  0  0  0  0  0  0  0  0  0
    3.3757   -3.3604    0.0000 O   0  0  0  0  0  0  0  0  0  0  0  0
    2.8488   -1.9879    0.0000 C   0  0  0  0  0  0  0  0  0  0  0  0
    1.7169    0.9323    0.0000 C   0  0  0  0  0  0  0  0  0  0  0  0
    1.1649    1.5454    0.0000 O   0  0  0  0  0  0  0  0  0  0  0  0
    2.5239    1.1038    0.0000 O   0  0  0  0  0  0  0  0  0  0  0  0
   -0.5175   -2.3125    0.0000 O   0  0  0  0  0  0  0  0  0  0  0  0
  2  1  1  0  0  0  0
  3  2  1  1  0  0  0
  3  4  1  0  0  0  0
  4  5  1  6  0  0  0
  5  6  1  0  0  0  0
  3  6  1  0  0  0  0
  6  7  2  0  0  0  0
  5  8  1  0  0  0  0
  8  9  2  0  0  0  0
  9 10  1  0  0  0  0
  4 10  1  0  0  0  0
  9 11  1  0  0  0  0
 12 11  1  1  0  0  0
 12 13  1  0  0  0  0
 13 14  1  0  0  0  0
 15 14  1  1  0  0  0
 15 16  2  0  0  0  0
 15 17  1  0  0  0  0
 12 17  1  0  0  0  0
  8 18  1  0  0  0  0
 18 19  2  0  0  0  0
 18 20  1  0  0  0  0
  2 21  1  6  0  0  0
M  END
> <Molar mass [g/mol] [MProp:scalar:double]>
349.43

> <Exact mass [Da] [MProp:scalar:double]>
349.011236109

> <Formula>
C12H15NO5S3

> <Composition>
C (41.25%), H (4.33%), N (4.01%), O (22.89%), S (27.52%)

> <Lipinski's rule of five [MProp:scalar:boolean]>
true

> <Atom count [MProp:scalar:integer]>
36

> <Heavy atom count [MProp:scalar:integer]>
21

> <Asymmetric atom count [MProp:scalar:integer]>
5

> <Rotatable bond count [MProp:scalar:integer]>
4

> <Ring count [MProp:scalar:integer]>
3

> <Aromatic ring count [MProp:scalar:integer]>
0

> <Hetero ring count [MProp:scalar:integer]>
3

> <FSP3 [MProp:scalar:double]>
0.67

> <Hydrogen bond donor count [MProp:scalar:integer]>
2

> <Hydrogen bond acceptor count [MProp:scalar:integer]>
5

> <Formal charge [MProp:scalar:integer]>
0

> <Topological polar surface area [A^2] [MProp:scalar:double]>
94.91

> <Polarizability [A^3] [MProp:scalar:double]>
32.7

> <Molar refractivity [cm^3/mol] [MProp:scalar:double]>
93.54

> <Van der Waals volume [A^3] [MProp:scalar:double]>
271.59

> <Minimum projection area [A^2] [MProp:scalar:double]>
45.05

> <Maximum projection area [A^2] [MProp:scalar:double]>
86.86

> <Minimum projection radius [A] [MProp:scalar:double]>
5.01

> <Maximum projection radius [A] [MProp:scalar:double]>
7.36

> <Van der Waals surface area [A^2] [MProp:scalar:double]>
406.28

> <Solvent accessible surface area [A^2] [MProp:scalar:double]>
478.25

> <Strongest acidic pKa [MProp:scalar:double]>
3.87

> <Strongest basic pKa [MProp:scalar:double]>
1.87

> <Isoelectric point [MProp:scalar:double]>
2.85

> <Intrinsic solubility [logS] [MProp:scalar:double]>
-3.04

> <Solubility category>
High

> <logP [MProp:scalar:double]>
-1.32

> <logD_PH0 [MProp:scalar:double]>
-3.2

> <logD_PH1 [MProp:scalar:double]>
-2.27

> <logD_PH2 [MProp:scalar:double]>
-1.59

> <logD_PH3 [MProp:scalar:double]>
-1.43

> <logD_PH4 [MProp:scalar:double]>
-1.72

> <logD_PH5 [MProp:scalar:double]>
-2.51

> <logD_PH6 [MProp:scalar:double]>
-3.46

> <logD_PH7 [MProp:scalar:double]>
-4.33

> <logD_PH8 [MProp:scalar:double]>
-4.76

> <logD_PH9 [MProp:scalar:double]>
-4.85

> <logD_PH10 [MProp:scalar:double]>
-4.97

> <logD_PH11 [MProp:scalar:double]>
-5.46

> <logD_PH12 [MProp:scalar:double]>
-6.35

> <logD_PH13 [MProp:scalar:double]>
-7.3

> <logD_PH14 [MProp:scalar:double]>
-8.02

> <HLB [MProp:scalar:double]>
18.56

> <IUPAC name>
(5R,6S)-6-[(1R)-1-hydroxyethyl]-7-oxo-3-{[(1R,3S)-1-oxo-1λ⁴-thiolan-3-yl]sulfanyl}-4-thia-1-azabicyclo[3.2.0]hept-2-ene-2-carboxylic acid

> <SMILES>
C[C@@H](O)[C@@H]1[C@H]2SC(S[C@H]3CC[S@@](=O)C3)=C(N2C1=O)C(O)=O

> <InChI>
InChI=1S/C12H15NO5S3/c1-5(14)7-9(15)13-8(11(16)17)12(20-10(7)13)19-6-2-3-21(18)4-6/h5-7,10,14H,2-4H2,1H3,(H,16,17)/t5-,6+,7+,10-,21-/m1/s1

> <InChIKey>
FLSUCZWOEMTFAQ-PRBGKLEPSA-N

> <Traditional name>
sulopenem

> <Common names>
sulopenem; 硫培南

> <CAS Registry Numbers(R)>
120788-07-0

$$$$
Biapenem
  Mrv2222 01232613222D          

 24 27  0  0  1  0            999 V2000
    0.6897    1.3847    0.0000 C   0  0  0  0  0  0  0  0  0  0  0  0
   -0.1173    1.2132    0.0000 C   0  0  2  0  0  0  0  0  0  0  0  0
   -0.7304    1.7652    0.0000 C   0  0  2  0  0  0  0  0  0  0  0  0
   -1.1429    2.4797    0.0000 C   0  0  2  0  0  0  0  0  0  0  0  0
   -1.8574    2.0672    0.0000 C   0  0  0  0  0  0  0  0  0  0  0  0
   -2.6543    2.2807    0.0000 O   0  0  0  0  0  0  0  0  0  0  0  0
   -1.4449    1.3527    0.0000 N   0  0  0  0  0  0  0  0  0  0  0  0
   -1.2734    0.5458    0.0000 C   0  0  0  0  0  0  0  0  0  0  0  0
   -0.4529    0.4595    0.0000 C   0  0  0  0  0  0  0  0  0  0  0  0
   -0.0404   -0.2549    0.0000 S   0  0  0  0  0  0  0  0  0  0  0  0
    0.7846   -0.2549    0.0000 C   0  0  0  0  0  0  0  0  0  0  0  0
    1.2695    0.4125    0.0000 C   0  0  0  0  0  0  0  0  0  0  0  0
    2.0542    0.1576    0.0000 N   0  0  0  0  0  0  0  0  0  0  0  0
    2.8388    0.4125    0.0000 C   0  0  0  0  0  0  0  0  0  0  0  0
    3.3237   -0.2549    0.0000 N   0  0  0  0  0  0  0  0  0  0  0  0
    2.8388   -0.9224    0.0000 C   0  0  0  0  0  0  0  0  0  0  0  0
    2.0542   -0.6674    0.0000 N   0  3  0  0  0  0  0  0  0  0  0  0
    1.2695   -0.9224    0.0000 C   0  0  0  0  0  0  0  0  0  0  0  0
   -1.8254   -0.0673    0.0000 C   0  0  0  0  0  0  0  0  0  0  0  0
   -1.5705   -0.8519    0.0000 O   0  0  0  0  0  0  0  0  0  0  0  0
   -2.6324    0.1042    0.0000 O   0  0  0  0  0  0  0  0  0  0  0  0
   -0.9294    3.2766    0.0000 C   0  0  1  0  0  0  0  0  0  0  0  0
   -1.5128    3.8600    0.0000 C   0  0  0  0  0  0  0  0  0  0  0  0
   -0.1325    3.4901    0.0000 O   0  0  0  0  0  0  0  0  0  0  0  0
  2  1  1  1  0  0  0
  3  2  1  0  0  0  0
  3  4  1  0  0  0  0
  4  5  1  0  0  0  0
  5  6  2  0  0  0  0
  5  7  1  0  0  0  0
  3  7  1  1  0  0  0
  7  8  1  0  0  0  0
  8  9  2  0  0  0  0
  2  9  1  0  0  0  0
  9 10  1  0  0  0  0
 10 11  1  0  0  0  0
 11 12  1  0  0  0  0
 12 13  1  0  0  0  0
 13 14  1  0  0  0  0
 14 15  2  0  0  0  0
 15 16  1  0  0  0  0
 16 17  2  0  0  0  0
 13 17  1  0  0  0  0
 17 18  1  0  0  0  0
 11 18  1  0  0  0  0
  8 19  1  0  0  0  0
 19 20  2  0  0  0  0
 19 21  1  0  0  0  0
  4 22  1  6  0  0  0
 22 23  1  0  0  0  0
 22 24  1  1  0  0  0
M  END
> <Molar mass [g/mol] [MProp:scalar:double]>
351.4

> <Exact mass [Da] [MProp:scalar:double]>
351.112152702

> <Formula>
C15H19N4O4S

> <Composition>
C (51.27%), H (5.45%), N (15.94%), O (18.21%), S (9.12%)

> <Lipinski's rule of five [MProp:scalar:boolean]>
true

> <Atom count [MProp:scalar:integer]>
43

> <Heavy atom count [MProp:scalar:integer]>
24

> <Asymmetric atom count [MProp:scalar:integer]>
5

> <Rotatable bond count [MProp:scalar:integer]>
4

> <Ring count [MProp:scalar:integer]>
4

> <Aromatic ring count [MProp:scalar:integer]>
1

> <Hetero ring count [MProp:scalar:integer]>
4

> <FSP3 [MProp:scalar:double]>
0.6

> <Hydrogen bond donor count [MProp:scalar:integer]>
2

> <Hydrogen bond acceptor count [MProp:scalar:integer]>
5

> <Formal charge [MProp:scalar:integer]>
1

> <Topological polar surface area [A^2] [MProp:scalar:double]>
99.54

> <Polarizability [A^3] [MProp:scalar:double]>
33.46

> <Molar refractivity [cm^3/mol] [MProp:scalar:double]>
109.99

> <Van der Waals volume [A^3] [MProp:scalar:double]>
290.55

> <Minimum projection area [A^2] [MProp:scalar:double]>
48.33

> <Maximum projection area [A^2] [MProp:scalar:double]>
96.81

> <Minimum projection radius [A] [MProp:scalar:double]>
5.0

> <Maximum projection radius [A] [MProp:scalar:double]>
8.03

> <Van der Waals surface area [A^2] [MProp:scalar:double]>
450.61

> <Solvent accessible surface area [A^2] [MProp:scalar:double]>
495.27

> <Strongest acidic pKa [MProp:scalar:double]>
3.71

> <Strongest basic pKa [MProp:scalar:double]>
2.29

> <Isoelectric point [MProp:scalar:double]>
9.26

> <Intrinsic solubility [logS]>
N/A

> <Solubility category>
N/A

> <logP [MProp:scalar:double]>
-6.05

> <logD_PH0 [MProp:scalar:double]>
-8.44

> <logD_PH1 [MProp:scalar:double]>
-7.56

> <logD_PH2 [MProp:scalar:double]>
-6.69

> <logD_PH3 [MProp:scalar:double]>
-6.05

> <logD_PH4 [MProp:scalar:double]>
-5.6

> <logD_PH5 [MProp:scalar:double]>
-5.46

> <logD_PH6 [MProp:scalar:double]>
-5.45

> <logD_PH7 [MProp:scalar:double]>
-5.44

> <logD_PH8 [MProp:scalar:double]>
-5.44

> <logD_PH9 [MProp:scalar:double]>
-5.44

> <logD_PH10 [MProp:scalar:double]>
-5.44

> <logD_PH11 [MProp:scalar:double]>
-5.44

> <logD_PH12 [MProp:scalar:double]>
-5.44

> <logD_PH13 [MProp:scalar:double]>
-5.45

> <logD_PH14 [MProp:scalar:double]>
-5.49

> <HLB [MProp:scalar:double]>
16.87

> <IUPAC name>
6-{[(4R,5S,6S)-2-carboxy-6-[(1R)-1-hydroxyethyl]-4-methyl-7-oxo-1-azabicyclo[3.2.0]hept-2-en-3-yl]sulfanyl}-5H,6H,7H-4λ⁵-pyrazolo[1,2-a][1,2,4]triazol-4-ylium

> <SMILES>
C[C@@H](O)[C@@H]1[C@H]2[C@@H](C)C(SC3CN4C=NC=[N+]4C3)=C(N2C1=O)C(O)=O

> <InChI>
InChI=1S/C15H18N4O4S/c1-7-11-10(8(2)20)14(21)19(11)12(15(22)23)13(7)24-9-3-17-5-16-6-18(17)4-9/h5-11,20H,3-4H2,1-2H3/p+1/t7-,8-,10-,11-/m1/s1

> <InChIKey>
MRMBZHPJVKCOMA-YJFSRANCSA-O

> <Traditional name>
6-{[(4R,5S,6S)-2-carboxy-6-[(1R)-1-hydroxyethyl]-4-methyl-7-oxo-1-azabicyclo[3.2.0]hept-2-en-3-yl]sulfanyl}-5H,6H,7H-4λ⁵-pyrazolo[1,2-a][1,2,4]triazol-4-ylium

> <Common names>
N/A

> <CAS Registry Numbers(R)>
N/A

$$$$
Tebipenem
  Mrv2222 01232613222D          

 25 28  0  0  1  0            999 V2000
    1.0396   -1.0396    0.0000 C   0  0  0  0  0  0  0  0  0  0  0  0
    0.7846   -0.2549    0.0000 C   0  0  2  0  0  0  0  0  0  0  0  0
    0.0000    0.0000    0.0000 C   0  0  2  0  0  0  0  0  0  0  0  0
   -0.8250    0.0000    0.0000 C   0  0  2  0  0  0  0  0  0  0  0  0
   -0.8250    0.8250    0.0000 C   0  0  0  0  0  0  0  0  0  0  0  0
   -1.4084    1.4084    0.0000 O   0  0  0  0  0  0  0  0  0  0  0  0
    0.0000    0.8250    0.0000 N   0  0  0  0  0  0  0  0  0  0  0  0
    0.7846    1.0799    0.0000 C   0  0  0  0  0  0  0  0  0  0  0  0
    1.2695    0.4125    0.0000 C   0  0  0  0  0  0  0  0  0  0  0  0
    2.0945    0.4125    0.0000 S   0  0  0  0  0  0  0  0  0  0  0  0
    2.5070    1.1270    0.0000 C   0  0  0  0  0  0  0  0  0  0  0  0
    2.2935    1.9239    0.0000 C   0  0  0  0  0  0  0  0  0  0  0  0
    3.0904    2.1374    0.0000 N   0  0  0  0  0  0  0  0  0  0  0  0
    3.3039    1.3405    0.0000 C   0  0  0  0  0  0  0  0  0  0  0  0
    3.5029    2.8519    0.0000 C   0  0  0  0  0  0  0  0  0  0  0  0
    3.1673    3.6055    0.0000 N   0  0  0  0  0  0  0  0  0  0  0  0
    3.7804    4.1576    0.0000 C   0  0  0  0  0  0  0  0  0  0  0  0
    4.4949    3.7451    0.0000 C   0  0  0  0  0  0  0  0  0  0  0  0
    4.3234    2.9381    0.0000 S   0  0  0  0  0  0  0  0  0  0  0  0
    1.0396    1.8646    0.0000 C   0  0  0  0  0  0  0  0  0  0  0  0
    1.8465    2.0361    0.0000 O   0  0  0  0  0  0  0  0  0  0  0  0
    0.4875    2.4777    0.0000 O   0  0  0  0  0  0  0  0  0  0  0  0
   -1.4084   -0.5834    0.0000 C   0  0  1  0  0  0  0  0  0  0  0  0
   -1.1948   -1.3803    0.0000 C   0  0  0  0  0  0  0  0  0  0  0  0
   -2.2053   -0.3698    0.0000 O   0  0  0  0  0  0  0  0  0  0  0  0
  2  1  1  6  0  0  0
  3  2  1  0  0  0  0
  3  4  1  0  0  0  0
  4  5  1  0  0  0  0
  5  6  2  0  0  0  0
  5  7  1  0  0  0  0
  3  7  1  6  0  0  0
  7  8  1  0  0  0  0
  8  9  2  0  0  0  0
  2  9  1  0  0  0  0
  9 10  1  0  0  0  0
 10 11  1  0  0  0  0
 11 12  1  0  0  0  0
 12 13  1  0  0  0  0
 13 14  1  0  0  0  0
 11 14  1  0  0  0  0
 13 15  1  0  0  0  0
 15 16  2  0  0  0  0
 16 17  1  0  0  0  0
 17 18  1  0  0  0  0
 18 19  1  0  0  0  0
 15 19  1  0  0  0  0
  8 20  1  0  0  0  0
 20 21  2  0  0  0  0
 20 22  1  0  0  0  0
  4 23  1  1  0  0  0
 23 24  1  0  0  0  0
 23 25  1  1  0  0  0
M  END
> <Molar mass [g/mol] [MProp:scalar:double]>
383.48

> <Exact mass [Da] [MProp:scalar:double]>
383.097348516

> <Formula>
C16H21N3O4S2

> <Composition>
C (50.11%), H (5.52%), N (10.96%), O (16.69%), S (16.72%)

> <Lipinski's rule of five [MProp:scalar:boolean]>
true

> <Atom count [MProp:scalar:integer]>
46

> <Heavy atom count [MProp:scalar:integer]>
25

> <Asymmetric atom count [MProp:scalar:integer]>
4

> <Rotatable bond count [MProp:scalar:integer]>
4

> <Ring count [MProp:scalar:integer]>
4

> <Aromatic ring count [MProp:scalar:integer]>
0

> <Hetero ring count [MProp:scalar:integer]>
4

> <FSP3 [MProp:scalar:double]>
0.69

> <Hydrogen bond donor count [MProp:scalar:integer]>
2

> <Hydrogen bond acceptor count [MProp:scalar:integer]>
6

> <Formal charge [MProp:scalar:integer]>
0

> <Topological polar surface area [A^2] [MProp:scalar:double]>
93.44

> <Polarizability [A^3] [MProp:scalar:double]>
37.52

> <Molar refractivity [cm^3/mol] [MProp:scalar:double]>
98.7

> <Van der Waals volume [A^3] [MProp:scalar:double]>
316.98

> <Minimum projection area [A^2] [MProp:scalar:double]>
49.77

> <Maximum projection area [A^2] [MProp:scalar:double]>
101.74

> <Minimum projection radius [A] [MProp:scalar:double]>
5.27

> <Maximum projection radius [A] [MProp:scalar:double]>
8.6

> <Van der Waals surface area [A^2] [MProp:scalar:double]>
486.55

> <Solvent accessible surface area [A^2] [MProp:scalar:double]>
569.47

> <Strongest acidic pKa [MProp:scalar:double]>
3.66

> <Strongest basic pKa [MProp:scalar:double]>
6.27

> <Isoelectric point [MProp:scalar:double]>
5.0

> <Intrinsic solubility [logS] [MProp:scalar:double]>
-4.01

> <Solubility category>
Moderate

> <logP [MProp:scalar:double]>
-2.11

> <logD_PH0 [MProp:scalar:double]>
-5.26

> <logD_PH1 [MProp:scalar:double]>
-4.36

> <logD_PH2 [MProp:scalar:double]>
-3.46

> <logD_PH3 [MProp:scalar:double]>
-2.72

> <logD_PH4 [MProp:scalar:double]>
-2.22

> <logD_PH5 [MProp:scalar:double]>
-2.11

> <logD_PH6 [MProp:scalar:double]>
-2.25

> <logD_PH7 [MProp:scalar:double]>
-2.85

> <logD_PH8 [MProp:scalar:double]>
-3.59

> <logD_PH9 [MProp:scalar:double]>
-3.92

> <logD_PH10 [MProp:scalar:double]>
-3.97

> <logD_PH11 [MProp:scalar:double]>
-3.98

> <logD_PH12 [MProp:scalar:double]>
-3.98

> <logD_PH13 [MProp:scalar:double]>
-3.98

> <logD_PH14 [MProp:scalar:double]>
-4.02

> <HLB [MProp:scalar:double]>
23.14

> <IUPAC name>
(4R,5S,6S)-3-{[1-(4,5-dihydro-1,3-thiazol-2-yl)azetidin-3-yl]sulfanyl}-6-[(1R)-1-hydroxyethyl]-4-methyl-7-oxo-1-azabicyclo[3.2.0]hept-2-ene-2-carboxylic acid

> <SMILES>
C[C@@H](O)[C@@H]1[C@H]2[C@@H](C)C(SC3CN(C3)C3=NCCS3)=C(N2C1=O)C(O)=O

> <InChI>
InChI=1S/C16H21N3O4S2/c1-7-11-10(8(2)20)14(21)19(11)12(15(22)23)13(7)25-9-5-18(6-9)16-17-3-4-24-16/h7-11,20H,3-6H2,1-2H3,(H,22,23)/t7-,8-,10-,11-/m1/s1

> <InChIKey>
GXXLUDOKHXEFBQ-YJFSRANCSA-N

> <Traditional name>
tebipenem

> <Common names>
N/A

> <CAS Registry Numbers(R)>
161715-21-5

$$$$
Rolitetracycline
  Mrv2222 01232613222D          

 38 42  0  0  1  0            999 V2000
    1.6131   -1.0445    0.0000 C   0  0  0  0  0  0  0  0  0  0  0  0
    2.1434   -0.4125    0.0000 C   0  0  2  0  0  0  0  0  0  0  0  0
    2.8579    0.0000    0.0000 C   0  0  1  0  0  0  0  0  0  0  0  0
    3.5724   -0.4125    0.0000 C   0  0  0  0  0  0  0  0  0  0  0  0
    4.2868    0.0000    0.0000 C   0  0  1  0  0  0  0  0  0  0  0  0
    5.0013   -0.4125    0.0000 C   0  0  1  0  0  0  0  0  0  0  0  0
    5.7158    0.0000    0.0000 C   0  0  0  0  0  0  0  0  0  0  0  0
    6.4302   -0.4125    0.0000 O   0  0  0  0  0  0  0  0  0  0  0  0
    5.7158    0.8250    0.0000 C   0  0  0  0  0  0  0  0  0  0  0  0
    5.0013    1.2375    0.0000 C   0  0  0  0  0  0  0  0  0  0  0  0
    4.2868    0.8250    0.0000 C   0  0  1  0  0  0  0  0  0  0  0  0
    3.5724    1.2375    0.0000 C   0  0  0  0  0  0  0  0  0  0  0  0
    3.5724    2.0625    0.0000 O   0  0  0  0  0  0  0  0  0  0  0  0
    2.8579    0.8250    0.0000 C   0  0  0  0  0  0  0  0  0  0  0  0
    2.1434    1.2375    0.0000 C   0  0  0  0  0  0  0  0  0  0  0  0
    1.4289    0.8250    0.0000 C   0  0  0  0  0  0  0  0  0  0  0  0
    1.4289    0.0000    0.0000 C   0  0  0  0  0  0  0  0  0  0  0  0
    0.7145   -0.4125    0.0000 C   0  0  0  0  0  0  0  0  0  0  0  0
    0.0000    0.0000    0.0000 C   0  0  0  0  0  0  0  0  0  0  0  0
    0.0000    0.8250    0.0000 C   0  0  0  0  0  0  0  0  0  0  0  0
    0.7145    1.2375    0.0000 C   0  0  0  0  0  0  0  0  0  0  0  0
    0.7145    2.0625    0.0000 O   0  0  0  0  0  0  0  0  0  0  0  0
    2.1434    2.0625    0.0000 O   0  0  0  0  0  0  0  0  0  0  0  0
    4.2868    1.6500    0.0000 O   0  0  0  0  0  0  0  0  0  0  0  0
    5.0013    2.0625    0.0000 O   0  0  0  0  0  0  0  0  0  0  0  0
    6.4302    1.2375    0.0000 C   0  0  0  0  0  0  0  0  0  0  0  0
    6.4302    2.0625    0.0000 O   0  0  0  0  0  0  0  0  0  0  0  0
    7.1447    0.8250    0.0000 N   0  0  0  0  0  0  0  0  0  0  0  0
    7.8592    1.2375    0.0000 C   0  0  0  0  0  0  0  0  0  0  0  0
    8.5737    0.8250    0.0000 N   0  0  0  0  0  0  0  0  0  0  0  0
    9.3273    1.1606    0.0000 C   0  0  0  0  0  0  0  0  0  0  0  0
    9.8794    0.5475    0.0000 C   0  0  0  0  0  0  0  0  0  0  0  0
    9.4669   -0.1670    0.0000 C   0  0  0  0  0  0  0  0  0  0  0  0
    8.6599    0.0045    0.0000 C   0  0  0  0  0  0  0  0  0  0  0  0
    5.0013   -1.2375    0.0000 N   0  0  0  0  0  0  0  0  0  0  0  0
    5.7158   -1.6500    0.0000 C   0  0  0  0  0  0  0  0  0  0  0  0
    4.2868   -1.6500    0.0000 C   0  0  0  0  0  0  0  0  0  0  0  0
    2.6737   -1.0445    0.0000 O   0  0  0  0  0  0  0  0  0  0  0  0
  2  1  1  1  0  0  0
  2  3  1  0  0  0  0
  3  4  1  6  0  0  0
  5  4  1  6  0  0  0
  5  6  1  0  0  0  0
  6  7  1  0  0  0  0
  7  8  2  0  0  0  0
  7  9  1  0  0  0  0
  9 10  1  0  0  0  0
 11 10  1  0  0  0  0
  5 11  1  0  0  0  0
 11 12  1  0  0  0  0
 12 13  1  0  0  0  0
 12 14  2  0  0  0  0
  3 14  1  0  0  0  0
 14 15  1  0  0  0  0
 15 16  1  0  0  0  0
 16 17  2  0  0  0  0
  2 17  1  0  0  0  0
 17 18  1  0  0  0  0
 18 19  2  0  0  0  0
 19 20  1  0  0  0  0
 20 21  2  0  0  0  0
 16 21  1  0  0  0  0
 21 22  1  0  0  0  0
 15 23  2  0  0  0  0
 11 24  1  1  0  0  0
 10 25  2  0  0  0  0
  9 26  1  0  0  0  0
 26 27  2  0  0  0  0
 26 28  1  0  0  0  0
 28 29  1  0  0  0  0
 29 30  1  0  0  0  0
 30 31  1  0  0  0  0
 31 32  1  0  0  0  0
 32 33  1  0  0  0  0
 33 34  1  0  0  0  0
 30 34  1  0  0  0  0
  6 35  1  1  0  0  0
 35 36  1  0  0  0  0
 35 37  1  0  0  0  0
  2 38  1  6  0  0  0
M  END
> <Molar mass [g/mol] [MProp:scalar:double]>
527.574

> <Exact mass [Da] [MProp:scalar:double]>
527.226765035

> <Formula>
C27H33N3O8

> <Composition>
C (61.47%), H (6.31%), N (7.96%), O (24.26%)

> <Lipinski's rule of five [MProp:scalar:boolean]>
false

> <Atom count [MProp:scalar:integer]>
71

> <Heavy atom count [MProp:scalar:integer]>
38

> <Asymmetric atom count [MProp:scalar:integer]>
6

> <Rotatable bond count [MProp:scalar:integer]>
4

> <Ring count [MProp:scalar:integer]>
5

> <Aromatic ring count [MProp:scalar:integer]>
1

> <Hetero ring count [MProp:scalar:integer]>
1

> <FSP3 [MProp:scalar:double]>
0.56

> <Hydrogen bond donor count [MProp:scalar:integer]>
5

> <Hydrogen bond acceptor count [MProp:scalar:integer]>
10

> <Formal charge [MProp:scalar:integer]>
0

> <Topological polar surface area [A^2] [MProp:scalar:double]>
167.71

> <Polarizability [A^3] [MProp:scalar:double]>
52.87

> <Molar refractivity [cm^3/mol] [MProp:scalar:double]>
137.36

> <Van der Waals volume [A^3] [MProp:scalar:double]>
467.71

> <Minimum projection area [A^2] [MProp:scalar:double]>
79.5

> <Maximum projection area [A^2] [MProp:scalar:double]>
107.9

> <Minimum projection radius [A] [MProp:scalar:double]>
6.11

> <Maximum projection radius [A] [MProp:scalar:double]>
6.56

> <Van der Waals surface area [A^2] [MProp:scalar:double]>
731.57

> <Solvent accessible surface area [A^2] [MProp:scalar:double]>
642.93

> <Strongest acidic pKa [MProp:scalar:double]>
5.82

> <Strongest basic pKa [MProp:scalar:double]>
6.71

> <Isoelectric point [MProp:scalar:double]>
6.67

> <Intrinsic solubility [logS] [MProp:scalar:double]>
-2.5

> <Solubility category>
High

> <logP [MProp:scalar:double]>
-0.25

> <logD_PH0 [MProp:scalar:double]>
-7.94

> <logD_PH1 [MProp:scalar:double]>
-7.07

> <logD_PH2 [MProp:scalar:double]>
-6.53

> <logD_PH3 [MProp:scalar:double]>
-5.91

> <logD_PH4 [MProp:scalar:double]>
-4.43

> <logD_PH5 [MProp:scalar:double]>
-2.56

> <logD_PH6 [MProp:scalar:double]>
-0.95

> <logD_PH7 [MProp:scalar:double]>
-0.25

> <logD_PH8 [MProp:scalar:double]>
-0.74

> <logD_PH9 [MProp:scalar:double]>
-2.15

> <logD_PH10 [MProp:scalar:double]>
-4.01

> <logD_PH11 [MProp:scalar:double]>
-5.69

> <logD_PH12 [MProp:scalar:double]>
-6.82

> <logD_PH13 [MProp:scalar:double]>
-7.67

> <logD_PH14 [MProp:scalar:double]>
-8.59

> <HLB [MProp:scalar:double]>
25.8

> <IUPAC name>
(4S,4aS,5aS,6S,12aS)-4-(dimethylamino)-6,10,12,12a-tetrahydroxy-6-methyl-1,3,11-trioxo-N-[(pyrrolidin-1-yl)methyl]-1,2,3,4,4a,5,5a,6,11,12a-decahydrotetracene-2-carboxamide

> <SMILES>
CN(C)[C@H]1[C@@H]2C[C@H]3C(=C(O)[C@]2(O)C(=O)C(C(=O)NCN2CCCC2)C1=O)C(=O)C1=C(C=CC=C1O)[C@@]3(C)O

> <InChI>
InChI=1S/C27H33N3O8/c1-26(37)13-7-6-8-16(31)17(13)21(32)18-14(26)11-15-20(29(2)3)22(33)19(24(35)27(15,38)23(18)34)25(36)28-12-30-9-4-5-10-30/h6-8,14-15,19-20,31,34,37-38H,4-5,9-12H2,1-3H3,(H,28,36)/t14-,15-,19?,20-,26-,27-/m0/s1

> <InChIKey>
RWXHJRHHDPWNPT-APLGCUCMSA-N

> <Traditional name>
(4S,4aS,5aS,6S,12aS)-4-(dimethylamino)-6,10,12,12a-tetrahydroxy-6-methyl-1,3,11-trioxo-N-(pyrrolidin-1-ylmethyl)-4,4a,5,5a-tetrahydro-2H-tetracene-2-carboxamide

> <Common names>
N/A

> <CAS Registry Numbers(R)>
N/A

$$$$
Eravacycline
  Mrv2222 01232613222D          

 40 44  0  0  1  0            999 V2000
    2.1434   -1.2375    0.0000 C   0  0  0  0  0  0  0  0  0  0  0  0
    2.8579   -1.6500    0.0000 N   0  0  0  0  0  0  0  0  0  0  0  0
    3.5724   -1.2375    0.0000 C   0  0  0  0  0  0  0  0  0  0  0  0
    2.8579   -2.4750    0.0000 C   0  0  1  0  0  0  0  0  0  0  0  0
    3.5724   -2.8875    0.0000 C   0  0  2  0  0  0  0  0  0  0  0  0
    4.2868   -2.4750    0.0000 C   0  0  0  0  0  0  0  0  0  0  0  0
    5.0013   -2.8875    0.0000 C   0  0  2  0  0  0  0  0  0  0  0  0
    5.7158   -2.4750    0.0000 C   0  0  0  0  0  0  0  0  0  0  0  0
    6.4302   -2.8875    0.0000 C   0  0  0  0  0  0  0  0  0  0  0  0
    7.1447   -2.4750    0.0000 C   0  0  0  0  0  0  0  0  0  0  0  0
    7.8592   -2.8875    0.0000 C   0  0  0  0  0  0  0  0  0  0  0  0
    7.8592   -3.7125    0.0000 C   0  0  0  0  0  0  0  0  0  0  0  0
    7.1447   -4.1250    0.0000 C   0  0  0  0  0  0  0  0  0  0  0  0
    6.4302   -3.7125    0.0000 C   0  0  0  0  0  0  0  0  0  0  0  0
    5.7158   -4.1250    0.0000 C   0  0  0  0  0  0  0  0  0  0  0  0
    5.0013   -3.7125    0.0000 C   0  0  0  0  0  0  0  0  0  0  0  0
    4.2868   -4.1250    0.0000 C   0  0  0  0  0  0  0  0  0  0  0  0
    4.2868   -4.9500    0.0000 O   0  0  0  0  0  0  0  0  0  0  0  0
    3.5724   -3.7125    0.0000 C   0  0  2  0  0  0  0  0  0  0  0  0
    2.8579   -4.1250    0.0000 C   0  0  0  0  0  0  0  0  0  0  0  0
    2.1434   -3.7125    0.0000 C   0  0  0  0  0  0  0  0  0  0  0  0
    2.1434   -2.8875    0.0000 C   0  0  0  0  0  0  0  0  0  0  0  0
    1.4289   -2.4750    0.0000 O   0  0  0  0  0  0  0  0  0  0  0  0
    1.4289   -4.1250    0.0000 C   0  0  0  0  0  0  0  0  0  0  0  0
    0.7145   -3.7125    0.0000 O   0  0  0  0  0  0  0  0  0  0  0  0
    1.4289   -4.9500    0.0000 N   0  0  0  0  0  0  0  0  0  0  0  0
    2.8579   -4.9500    0.0000 O   0  0  0  0  0  0  0  0  0  0  0  0
    3.5724   -4.5375    0.0000 O   0  0  0  0  0  0  0  0  0  0  0  0
    5.7158   -4.9500    0.0000 O   0  0  0  0  0  0  0  0  0  0  0  0
    7.1447   -4.9500    0.0000 O   0  0  0  0  0  0  0  0  0  0  0  0
    8.5737   -4.1250    0.0000 N   0  0  0  0  0  0  0  0  0  0  0  0
    8.5737   -4.9500    0.0000 C   0  0  0  0  0  0  0  0  0  0  0  0
    7.8592   -5.3625    0.0000 O   0  0  0  0  0  0  0  0  0  0  0  0
    9.2881   -5.3625    0.0000 C   0  0  0  0  0  0  0  0  0  0  0  0
    9.2881   -6.1875    0.0000 N   0  0  0  0  0  0  0  0  0  0  0  0
    9.9556   -6.6724    0.0000 C   0  0  0  0  0  0  0  0  0  0  0  0
    9.7006   -7.4570    0.0000 C   0  0  0  0  0  0  0  0  0  0  0  0
    8.8756   -7.4570    0.0000 C   0  0  0  0  0  0  0  0  0  0  0  0
    8.6207   -6.6724    0.0000 C   0  0  0  0  0  0  0  0  0  0  0  0
    7.1447   -1.6500    0.0000 F   0  0  0  0  0  0  0  0  0  0  0  0
  1  2  1  0  0  0  0
  2  3  1  0  0  0  0
  4  2  1  1  0  0  0
  5  4  1  0  0  0  0
  5  6  1  6  0  0  0
  7  6  1  6  0  0  0
  7  8  1  0  0  0  0
  8  9  1  0  0  0  0
  9 10  2  0  0  0  0
 10 11  1  0  0  0  0
 11 12  2  0  0  0  0
 12 13  1  0  0  0  0
 13 14  2  0  0  0  0
  9 14  1  0  0  0  0
 14 15  1  0  0  0  0
 15 16  1  0  0  0  0
  7 16  1  0  0  0  0
 16 17  2  0  0  0  0
 17 18  1  0  0  0  0
 19 17  1  0  0  0  0
  5 19  1  0  0  0  0
 19 20  1  0  0  0  0
 20 21  2  0  0  0  0
 21 22  1  0  0  0  0
  4 22  1  0  0  0  0
 22 23  2  0  0  0  0
 21 24  1  0  0  0  0
 24 25  2  0  0  0  0
 24 26  1  0  0  0  0
 20 27  1  0  0  0  0
 19 28  1  1  0  0  0
 15 29  2  0  0  0  0
 13 30  1  0  0  0  0
 12 31  1  0  0  0  0
 31 32  1  0  0  0  0
 32 33  2  0  0  0  0
 32 34  1  0  0  0  0
 34 35  1  0  0  0  0
 35 36  1  0  0  0  0
 36 37  1  0  0  0  0
 37 38  1  0  0  0  0
 38 39  1  0  0  0  0
 35 39  1  0  0  0  0
 10 40  1  0  0  0  0
M  END
> <Molar mass [g/mol] [MProp:scalar:double]>
558.563

> <Exact mass [Da] [MProp:scalar:double]>
558.212592137

> <Formula>
C27H31FN4O8

> <Composition>
C (58.06%), H (5.59%), F (3.40%), N (10.03%), O (22.91%)

> <Lipinski's rule of five [MProp:scalar:boolean]>
false

> <Atom count [MProp:scalar:integer]>
71

> <Heavy atom count [MProp:scalar:integer]>
40

> <Asymmetric atom count [MProp:scalar:integer]>
4

> <Rotatable bond count [MProp:scalar:integer]>
5

> <Ring count [MProp:scalar:integer]>
5

> <Aromatic ring count [MProp:scalar:integer]>
1

> <Hetero ring count [MProp:scalar:integer]>
1

> <FSP3 [MProp:scalar:double]>
0.48

> <Hydrogen bond donor count [MProp:scalar:integer]>
6

> <Hydrogen bond acceptor count [MProp:scalar:integer]>
10

> <Formal charge [MProp:scalar:integer]>
0

> <Topological polar surface area [A^2] [MProp:scalar:double]>
193.73

> <Polarizability [A^3] [MProp:scalar:double]>
53.46

> <Molar refractivity [cm^3/mol] [MProp:scalar:double]>
144.09

> <Van der Waals volume [A^3] [MProp:scalar:double]>
477.51

> <Minimum projection area [A^2] [MProp:scalar:double]>
65.13

> <Maximum projection area [A^2] [MProp:scalar:double]>
133.32

> <Minimum projection radius [A] [MProp:scalar:double]>
5.54

> <Maximum projection radius [A] [MProp:scalar:double]>
10.47

> <Van der Waals surface area [A^2] [MProp:scalar:double]>
726.1

> <Solvent accessible surface area [A^2] [MProp:scalar:double]>
668.53

> <Strongest acidic pKa [MProp:scalar:double]>
-0.29

> <Strongest basic pKa [MProp:scalar:double]>
7.52

> <Isoelectric point [MProp:scalar:double]>
6.6

> <Intrinsic solubility [logS] [MProp:scalar:double]>
-2.53

> <Solubility category>
High

> <logP [MProp:scalar:double]>
-3.73

> <logD_PH0 [MProp:scalar:double]>
-7.68

> <logD_PH1 [MProp:scalar:double]>
-7.5

> <logD_PH2 [MProp:scalar:double]>
-7.26

> <logD_PH3 [MProp:scalar:double]>
-6.54

> <logD_PH4 [MProp:scalar:double]>
-5.56

> <logD_PH5 [MProp:scalar:double]>
-4.58

> <logD_PH6 [MProp:scalar:double]>
-3.73

> <logD_PH7 [MProp:scalar:double]>
-3.62

> <logD_PH8 [MProp:scalar:double]>
-4.62

> <logD_PH9 [MProp:scalar:double]>
-5.79

> <logD_PH10 [MProp:scalar:double]>
-6.99

> <logD_PH11 [MProp:scalar:double]>
-8.24

> <logD_PH12 [MProp:scalar:double]>
-9.13

> <logD_PH13 [MProp:scalar:double]>
-9.63

> <logD_PH14 [MProp:scalar:double]>
-10.52

> <HLB [MProp:scalar:double]>
32.28

> <IUPAC name>
(4S,4aS,5aR,12aS)-4-(dimethylamino)-7-fluoro-1,10,12,12a-tetrahydroxy-3,11-dioxo-9-[2-(pyrrolidin-1-yl)acetamido]-3,4,4a,5,5a,6,11,12a-octahydrotetracene-2-carboxamide

> <SMILES>
CN(C)[C@H]1[C@@H]2C[C@@H]3CC4=C(F)C=C(NC(=O)CN5CCCC5)C(O)=C4C(=O)C3=C(O)[C@]2(O)C(O)=C(C(N)=O)C1=O

> <InChI>
InChI=1S/C27H31FN4O8/c1-31(2)20-13-8-11-7-12-14(28)9-15(30-16(33)10-32-5-3-4-6-32)21(34)18(12)22(35)17(11)24(37)27(13,40)25(38)19(23(20)36)26(29)39/h9,11,13,20,34,37-38,40H,3-8,10H2,1-2H3,(H2,29,39)(H,30,33)/t11-,13-,20-,27-/m0/s1

> <InChIKey>
NDRFSXNBDFIZPT-ISIOAQNYSA-N

> <Traditional name>
(4S,4aS,5aR,12aS)-4-(dimethylamino)-7-fluoro-1,10,12,12a-tetrahydroxy-3,11-dioxo-9-[2-(pyrrolidin-1-yl)acetamido]-4a,5,5a,6-tetrahydro-4H-tetracene-2-carboxamide

> <Common names>
N/A

> <CAS Registry Numbers(R)>
N/A

$$$$
Tetroxoprim
  Mrv2222 01232613222D          

 24 25  0  0  0  0            999 V2000
   -4.2868   -4.1250    0.0000 C   0  0  0  0  0  0  0  0  0  0  0  0
   -3.5724   -4.5375    0.0000 O   0  0  0  0  0  0  0  0  0  0  0  0
   -2.8579   -4.1250    0.0000 C   0  0  0  0  0  0  0  0  0  0  0  0
   -2.1434   -4.5375    0.0000 C   0  0  0  0  0  0  0  0  0  0  0  0
   -1.4289   -4.1250    0.0000 O   0  0  0  0  0  0  0  0  0  0  0  0
   -0.7145   -4.5375    0.0000 C   0  0  0  0  0  0  0  0  0  0  0  0
    0.0000   -4.1250    0.0000 C   0  0  0  0  0  0  0  0  0  0  0  0
    0.7145   -4.5375    0.0000 C   0  0  0  0  0  0  0  0  0  0  0  0
    0.7145   -5.3625    0.0000 C   0  0  0  0  0  0  0  0  0  0  0  0
    0.0000   -5.7750    0.0000 C   0  0  0  0  0  0  0  0  0  0  0  0
   -0.7145   -5.3625    0.0000 C   0  0  0  0  0  0  0  0  0  0  0  0
   -1.4289   -5.7750    0.0000 O   0  0  0  0  0  0  0  0  0  0  0  0
   -2.1434   -5.3625    0.0000 C   0  0  0  0  0  0  0  0  0  0  0  0
    1.4289   -5.7750    0.0000 C   0  0  0  0  0  0  0  0  0  0  0  0
    2.1434   -5.3625    0.0000 C   0  0  0  0  0  0  0  0  0  0  0  0
    2.1434   -4.5375    0.0000 C   0  0  0  0  0  0  0  0  0  0  0  0
    2.8579   -4.1250    0.0000 N   0  0  0  0  0  0  0  0  0  0  0  0
    3.5724   -4.5375    0.0000 C   0  0  0  0  0  0  0  0  0  0  0  0
    3.5724   -5.3625    0.0000 N   0  0  0  0  0  0  0  0  0  0  0  0
    2.8579   -5.7750    0.0000 C   0  0  0  0  0  0  0  0  0  0  0  0
    2.8579   -6.6000    0.0000 N   0  0  0  0  0  0  0  0  0  0  0  0
    4.2868   -4.1250    0.0000 N   0  0  0  0  0  0  0  0  0  0  0  0
    0.0000   -3.3000    0.0000 O   0  0  0  0  0  0  0  0  0  0  0  0
    0.7145   -2.8875    0.0000 C   0  0  0  0  0  0  0  0  0  0  0  0
  1  2  1  0  0  0  0
  2  3  1  0  0  0  0
  3  4  1  0  0  0  0
  4  5  1  0  0  0  0
  5  6  1  0  0  0  0
  6  7  2  0  0  0  0
  7  8  1  0  0  0  0
  8  9  2  0  0  0  0
  9 10  1  0  0  0  0
 10 11  2  0  0  0  0
  6 11  1  0  0  0  0
 11 12  1  0  0  0  0
 12 13  1  0  0  0  0
  9 14  1  0  0  0  0
 14 15  1  0  0  0  0
 15 16  2  0  0  0  0
 16 17  1  0  0  0  0
 17 18  2  0  0  0  0
 18 19  1  0  0  0  0
 19 20  2  0  0  0  0
 15 20  1  0  0  0  0
 20 21  1  0  0  0  0
 18 22  1  0  0  0  0
  7 23  1  0  0  0  0
 23 24  1  0  0  0  0
M  END
> <Molar mass [g/mol] [MProp:scalar:double]>
334.376

> <Exact mass [Da] [MProp:scalar:double]>
334.164105204

> <Formula>
C16H22N4O4

> <Composition>
C (57.47%), H (6.63%), N (16.76%), O (19.14%)

> <Lipinski's rule of five [MProp:scalar:boolean]>
true

> <Atom count [MProp:scalar:integer]>
46

> <Heavy atom count [MProp:scalar:integer]>
24

> <Asymmetric atom count [MProp:scalar:integer]>
0

> <Rotatable bond count [MProp:scalar:integer]>
8

> <Ring count [MProp:scalar:integer]>
2

> <Aromatic ring count [MProp:scalar:integer]>
2

> <Hetero ring count [MProp:scalar:integer]>
1

> <FSP3 [MProp:scalar:double]>
0.37

> <Hydrogen bond donor count [MProp:scalar:integer]>
2

> <Hydrogen bond acceptor count [MProp:scalar:integer]>
8

> <Formal charge [MProp:scalar:integer]>
0

> <Topological polar surface area [A^2] [MProp:scalar:double]>
114.74

> <Polarizability [A^3] [MProp:scalar:double]>
34.15

> <Molar refractivity [cm^3/mol] [MProp:scalar:double]>
92.55

> <Van der Waals volume [A^3] [MProp:scalar:double]>
304.22

> <Minimum projection area [A^2] [MProp:scalar:double]>
52.57

> <Maximum projection area [A^2] [MProp:scalar:double]>
94.3

> <Minimum projection radius [A] [MProp:scalar:double]>
4.97

> <Maximum projection radius [A] [MProp:scalar:double]>
8.25

> <Van der Waals surface area [A^2] [MProp:scalar:double]>
509.08

> <Solvent accessible surface area [A^2] [MProp:scalar:double]>
635.25

> <Strongest acidic pKa>
N/A

> <Strongest basic pKa [MProp:scalar:double]>
7.16

> <Isoelectric point>
N/A

> <Intrinsic solubility [logS] [MProp:scalar:double]>
-2.79

> <Solubility category>
High

> <logP [MProp:scalar:double]>
1.24

> <logD_PH0 [MProp:scalar:double]>
-0.58

> <logD_PH1 [MProp:scalar:double]>
-0.29

> <logD_PH2 [MProp:scalar:double]>
-0.24

> <logD_PH3 [MProp:scalar:double]>
-0.24

> <logD_PH4 [MProp:scalar:double]>
-0.23

> <logD_PH5 [MProp:scalar:double]>
-0.16

> <logD_PH6 [MProp:scalar:double]>
0.22

> <logD_PH7 [MProp:scalar:double]>
0.87

> <logD_PH8 [MProp:scalar:double]>
1.18

> <logD_PH9 [MProp:scalar:double]>
1.23

> <logD_PH10 [MProp:scalar:double]>
1.24

> <logD_PH11 [MProp:scalar:double]>
1.24

> <logD_PH12 [MProp:scalar:double]>
1.24

> <logD_PH13 [MProp:scalar:double]>
1.24

> <logD_PH14 [MProp:scalar:double]>
1.24

> <HLB [MProp:scalar:double]>
10.4

> <IUPAC name>
5-{[3,5-dimethoxy-4-(2-methoxyethoxy)phenyl]methyl}pyrimidine-2,4-diamine

> <SMILES>
COCCOC1=C(OC)C=C(CC2=CN=C(N)N=C2N)C=C1OC

> <InChI>
InChI=1S/C16H22N4O4/c1-21-4-5-24-14-12(22-2)7-10(8-13(14)23-3)6-11-9-19-16(18)20-15(11)17/h7-9H,4-6H2,1-3H3,(H4,17,18,19,20)

> <InChIKey>
WSWJIZXMAUYHOE-UHFFFAOYSA-N

> <Traditional name>
tetroxoprim

> <Common names>
tetroxoprim

> <CAS Registry Numbers(R)>
53808-87-0

$$$$
Aditoprim
  Mrv2222 01232613222D          

 22 23  0  0  0  0            999 V2000
    1.4289    0.0000    0.0000 C   0  0  0  0  0  0  0  0  0  0  0  0
    2.1434   -0.4125    0.0000 N   0  0  0  0  0  0  0  0  0  0  0  0
    2.8579    0.0000    0.0000 C   0  0  0  0  0  0  0  0  0  0  0  0
    2.1434   -1.2375    0.0000 C   0  0  0  0  0  0  0  0  0  0  0  0
    2.8579   -1.6500    0.0000 C   0  0  0  0  0  0  0  0  0  0  0  0
    2.8579   -2.4750    0.0000 C   0  0  0  0  0  0  0  0  0  0  0  0
    2.1434   -2.8875    0.0000 C   0  0  0  0  0  0  0  0  0  0  0  0
    1.4289   -2.4750    0.0000 C   0  0  0  0  0  0  0  0  0  0  0  0
    1.4289   -1.6500    0.0000 C   0  0  0  0  0  0  0  0  0  0  0  0
    0.7145   -1.2375    0.0000 O   0  0  0  0  0  0  0  0  0  0  0  0
    0.7145   -0.4125    0.0000 C   0  0  0  0  0  0  0  0  0  0  0  0
    2.1434   -3.7125    0.0000 C   0  0  0  0  0  0  0  0  0  0  0  0
    1.4289   -4.1250    0.0000 C   0  0  0  0  0  0  0  0  0  0  0  0
    1.4289   -4.9500    0.0000 C   0  0  0  0  0  0  0  0  0  0  0  0
    0.7145   -5.3625    0.0000 N   0  0  0  0  0  0  0  0  0  0  0  0
    0.0000   -4.9500    0.0000 C   0  0  0  0  0  0  0  0  0  0  0  0
    0.0000   -4.1250    0.0000 N   0  0  0  0  0  0  0  0  0  0  0  0
    0.7145   -3.7125    0.0000 C   0  0  0  0  0  0  0  0  0  0  0  0
    0.7145   -2.8875    0.0000 N   0  0  0  0  0  0  0  0  0  0  0  0
   -0.7145   -5.3625    0.0000 N   0  0  0  0  0  0  0  0  0  0  0  0
    3.5724   -1.2375    0.0000 O   0  0  0  0  0  0  0  0  0  0  0  0
    4.2868   -1.6500    0.0000 C   0  0  0  0  0  0  0  0  0  0  0  0
  1  2  1  0  0  0  0
  2  3  1  0  0  0  0
  2  4  1  0  0  0  0
  4  5  2  0  0  0  0
  5  6  1  0  0  0  0
  6  7  2  0  0  0  0
  7  8  1  0  0  0  0
  8  9  2  0  0  0  0
  4  9  1  0  0  0  0
  9 10  1  0  0  0  0
 10 11  1  0  0  0  0
  7 12  1  0  0  0  0
 12 13  1  0  0  0  0
 13 14  2  0  0  0  0
 14 15  1  0  0  0  0
 15 16  2  0  0  0  0
 16 17  1  0  0  0  0
 17 18  2  0  0  0  0
 13 18  1  0  0  0  0
 18 19  1  0  0  0  0
 16 20  1  0  0  0  0
  5 21  1  0  0  0  0
 21 22  1  0  0  0  0
M  END
> <Molar mass [g/mol] [MProp:scalar:double]>
303.366

> <Exact mass [Da] [MProp:scalar:double]>
303.169524936

> <Formula>
C15H21N5O2

> <Composition>
C (59.39%), H (6.98%), N (23.09%), O (10.55%)

> <Lipinski's rule of five [MProp:scalar:boolean]>
true

> <Atom count [MProp:scalar:integer]>
43

> <Heavy atom count [MProp:scalar:integer]>
22

> <Asymmetric atom count [MProp:scalar:integer]>
0

> <Rotatable bond count [MProp:scalar:integer]>
5

> <Ring count [MProp:scalar:integer]>
2

> <Aromatic ring count [MProp:scalar:integer]>
2

> <Hetero ring count [MProp:scalar:integer]>
1

> <FSP3 [MProp:scalar:double]>
0.33

> <Hydrogen bond donor count [MProp:scalar:integer]>
2

> <Hydrogen bond acceptor count [MProp:scalar:integer]>
7

> <Formal charge [MProp:scalar:integer]>
0

> <Topological polar surface area [A^2] [MProp:scalar:double]>
99.52

> <Polarizability [A^3] [MProp:scalar:double]>
32.04

> <Molar refractivity [cm^3/mol] [MProp:scalar:double]>
89.47

> <Van der Waals volume [A^3] [MProp:scalar:double]>
282.12

> <Minimum projection area [A^2] [MProp:scalar:double]>
50.9

> <Maximum projection area [A^2] [MProp:scalar:double]>
88.55

> <Minimum projection radius [A] [MProp:scalar:double]>
4.92

> <Maximum projection radius [A] [MProp:scalar:double]>
7.13

> <Van der Waals surface area [A^2] [MProp:scalar:double]>
469.41

> <Solvent accessible surface area [A^2] [MProp:scalar:double]>
542.57

> <Strongest acidic pKa>
N/A

> <Strongest basic pKa [MProp:scalar:double]>
7.16

> <Isoelectric point>
N/A

> <Intrinsic solubility [logS] [MProp:scalar:double]>
-2.63

> <Solubility category>
High

> <logP [MProp:scalar:double]>
1.55

> <logD_PH0 [MProp:scalar:double]>
-3.61

> <logD_PH1 [MProp:scalar:double]>
-2.05

> <logD_PH2 [MProp:scalar:double]>
-0.83

> <logD_PH3 [MProp:scalar:double]>
-0.14

> <logD_PH4 [MProp:scalar:double]>
0.06

> <logD_PH5 [MProp:scalar:double]>
0.15

> <logD_PH6 [MProp:scalar:double]>
0.53

> <logD_PH7 [MProp:scalar:double]>
1.18

> <logD_PH8 [MProp:scalar:double]>
1.49

> <logD_PH9 [MProp:scalar:double]>
1.54

> <logD_PH10 [MProp:scalar:double]>
1.55

> <logD_PH11 [MProp:scalar:double]>
1.55

> <logD_PH12 [MProp:scalar:double]>
1.55

> <logD_PH13 [MProp:scalar:double]>
1.55

> <logD_PH14 [MProp:scalar:double]>
1.55

> <HLB [MProp:scalar:double]>
8.96

> <IUPAC name>
5-{[4-(dimethylamino)-3,5-dimethoxyphenyl]methyl}pyrimidine-2,4-diamine

> <SMILES>
COC1=CC(CC2=CN=C(N)N=C2N)=CC(OC)=C1N(C)C

> <InChI>
InChI=1S/C15H21N5O2/c1-20(2)13-11(21-3)6-9(7-12(13)22-4)5-10-8-18-15(17)19-14(10)16/h6-8H,5H2,1-4H3,(H4,16,17,18,19)

> <InChIKey>
QBQMXWZTRRWPGK-UHFFFAOYSA-N

> <Traditional name>
aditoprim

> <Common names>
aditoprim

> <CAS Registry Numbers(R)>
56066-63-8

$$$$
Florfenicol
  Mrv2222 01232613222D          

 21 21  0  0  1  0            999 V2000
   -4.8395    0.6336    0.0000 C    0  0  0  0  0  0  0  0  0  0  0  0
   -4.0145    0.6336    0.0000 S    0  0  0  0  0  0  0  0  0  0  0  0
   -4.0145   -0.1914    0.0000 O    0  0  0  0  0  0  0  0  0  0  0  0
   -4.0145    1.4586    0.0000 O    0  0  0  0  0  0  0  0  0  0  0  0
   -3.1895    0.6336    0.0000 C    0  0  0  0  0  0  0  0  0  0  0  0
   -2.7770    1.3480    0.0000 C    0  0  0  0  0  0  0  0  0  0  0  0
   -1.9520    1.3480    0.0000 C    0  0  0  0  0  0  0  0  0  0  0  0
   -1.5395    0.6336    0.0000 C    0  0  0  0  0  0  0  0  0  0  0  0
   -1.9520   -0.0809    0.0000 C    0  0  0  0  0  0  0  0  0  0  0  0
   -2.7770   -0.0809    0.0000 C    0  0  0  0  0  0  0  0  0  0  0  0
   -0.7145    0.6336    0.0000 C    0  0  2  0  0  0  0  0  0  0  0  0
   -0.3020    1.3480    0.0000 C    0  0  1  0  0  0  0  0  0  0  0  0
   -0.7145    2.0625    0.0000 C    0  0  0  0  0  0  0  0  0  0  0  0
   -0.3020    2.7770    0.0000 F    0  0  0  0  0  0  0  0  0  0  0  0
    0.5230    1.3480    0.0000 N    0  0  0  0  0  0  0  0  0  0  0  0
    0.9355    2.0625    0.0000 C    0  0  0  0  0  0  0  0  0  0  0  0
    0.5230    2.7770    0.0000 O    0  0  0  0  0  0  0  0  0  0  0  0
    1.7605    2.0625    0.0000 C    0  0  0  0  0  0  0  0  0  0  0  0
    2.1730    2.7770    0.0000 Cl   0  0  0  0  0  0  0  0  0  0  0  0
    2.1730    1.3480    0.0000 Cl   0  0  0  0  0  0  0  0  0  0  0  0
   -0.3020   -0.0809    0.0000 O    0  0  0  0  0  0  0  0  0  0  0  0
  1  2  1  0  0  0  0
  2  3  2  0  0  0  0
  2  4  2  0  0  0  0
  2  5  1  0  0  0  0
  5  6  2  0  0  0  0
  6  7  1  0  0  0  0
  7  8  2  0  0  0  0
  8  9  1  0  0  0  0
  9 10  2  0  0  0  0
  5 10  1  0  0  0  0
 11  8  1  0  0  0  0
 11 12  1  0  0  0  0
 12 13  1  0  0  0  0
 13 14  1  0  0  0  0
 12 15  1  1  0  0  0
 15 16  1  0  0  0  0
 16 17  2  0  0  0  0
 16 18  1  0  0  0  0
 18 19  1  0  0  0  0
 18 20  1  0  0  0  0
 11 21  1  6  0  0  0
M  END
> <Molar mass [g/mol] [MProp:scalar:double]>
358.21

> <Exact mass [Da] [MProp:scalar:double]>
357.0004627

> <Formula>
C12H14Cl2FNO4S

> <Composition>
C (40.24%), H (3.94%), Cl (19.79%), F (5.30%), N (3.91%), O (17.87%), S (8.95%)

> <Lipinski's rule of five [MProp:scalar:boolean]>
true

> <Atom count [MProp:scalar:integer]>
35

> <Heavy atom count [MProp:scalar:integer]>
21

> <Asymmetric atom count [MProp:scalar:integer]>
2

> <Rotatable bond count [MProp:scalar:integer]>
6

> <Ring count [MProp:scalar:integer]>
1

> <Aromatic ring count [MProp:scalar:integer]>
1

> <Hetero ring count [MProp:scalar:integer]>
0

> <FSP3 [MProp:scalar:double]>
0.42

> <Hydrogen bond donor count [MProp:scalar:integer]>
2

> <Hydrogen bond acceptor count [MProp:scalar:integer]>
4

> <Formal charge [MProp:scalar:integer]>
0

> <Topological polar surface area [A^2] [MProp:scalar:double]>
83.47

> <Polarizability [A^3] [MProp:scalar:double]>
31.01

> <Molar refractivity [cm^3/mol] [MProp:scalar:double]>
78.19

> <Van der Waals volume [A^3] [MProp:scalar:double]>
275.31

> <Minimum projection area [A^2] [MProp:scalar:double]>
47.38

> <Maximum projection area [A^2] [MProp:scalar:double]>
81.21

> <Minimum projection radius [A] [MProp:scalar:double]>
4.89

> <Maximum projection radius [A] [MProp:scalar:double]>
6.82

> <Van der Waals surface area [A^2] [MProp:scalar:double]>
437.95

> <Solvent accessible surface area [A^2] [MProp:scalar:double]>
512.44

> <Strongest acidic pKa [MProp:scalar:double]>
10.68

> <Strongest basic pKa [MProp:scalar:double]>
0.9

> <Isoelectric point [MProp:scalar:double]>
5.79

> <Intrinsic solubility [logS] [MProp:scalar:double]>
-2.96

> <Solubility category>
High

> <logP [MProp:scalar:double]>
0.67

> <logD_PH0 [MProp:scalar:double]>
-0.28

> <logD_PH1 [MProp:scalar:double]>
0.42

> <logD_PH2 [MProp:scalar:double]>
0.64

> <logD_PH3 [MProp:scalar:double]>
0.67

> <logD_PH4 [MProp:scalar:double]>
0.67

> <logD_PH5 [MProp:scalar:double]>
0.67

> <logD_PH6 [MProp:scalar:double]>
0.67

> <logD_PH7 [MProp:scalar:double]>
0.67

> <logD_PH8 [MProp:scalar:double]>
0.67

> <logD_PH9 [MProp:scalar:double]>
0.66

> <logD_PH10 [MProp:scalar:double]>
0.6

> <logD_PH11 [MProp:scalar:double]>
0.27

> <logD_PH12 [MProp:scalar:double]>
-0.15

> <logD_PH13 [MProp:scalar:double]>
-0.35

> <logD_PH14 [MProp:scalar:double]>
-0.82

> <HLB [MProp:scalar:double]>
12.87

> <IUPAC name>
2,2-dichloro-N-[(1R,2S)-3-fluoro-1-hydroxy-1-(4-methanesulfonylphenyl)propan-2-yl]acetamide

> <SMILES>
CS(=O)(=O)C1=CC=C(C=C1)[C@@H](O)[C@@H](CF)NC(=O)C(Cl)Cl

> <InChI>
InChI=1S/C12H14Cl2FNO4S/c1-21(19,20)8-4-2-7(3-5-8)10(17)9(6-15)16-12(18)11(13)14/h2-5,9-11,17H,6H2,1H3,(H,16,18)/t9-,10-/m1/s1

> <InChIKey>
AYIRNRDRBQJXIF-NXEZZACHSA-N

> <Traditional name>
florfenicol

> <Common names>
florfenicol; 氟苯尼考

> <CAS Registry Numbers(R)>
73231-34-2, 76639-94-6

$$$$
Thiamphenicol
  Mrv2222 01232613222D          

 21 21  0  0  1  0            999 V2000
   -4.8395    0.6336    0.0000 C    0  0  0  0  0  0  0  0  0  0  0  0
   -4.0145    0.6336    0.0000 S    0  0  0  0  0  0  0  0  0  0  0  0
   -4.0145   -0.1914    0.0000 O    0  0  0  0  0  0  0  0  0  0  0  0
   -4.0145    1.4586    0.0000 O    0  0  0  0  0  0  0  0  0  0  0  0
   -3.1895    0.6336    0.0000 C    0  0  0  0  0  0  0  0  0  0  0  0
   -2.7770    1.3480    0.0000 C    0  0  0  0  0  0  0  0  0  0  0  0
   -1.9520    1.3480    0.0000 C    0  0  0  0  0  0  0  0  0  0  0  0
   -1.5395    0.6336    0.0000 C    0  0  0  0  0  0  0  0  0  0  0  0
   -1.9520   -0.0809    0.0000 C    0  0  0  0  0  0  0  0  0  0  0  0
   -2.7770   -0.0809    0.0000 C    0  0  0  0  0  0  0  0  0  0  0  0
   -0.7145    0.6336    0.0000 C    0  0  2  0  0  0  0  0  0  0  0  0
   -0.3020    1.3480    0.0000 C    0  0  1  0  0  0  0  0  0  0  0  0
   -0.7145    2.0625    0.0000 C    0  0  0  0  0  0  0  0  0  0  0  0
   -0.3020    2.7770    0.0000 O    0  0  0  0  0  0  0  0  0  0  0  0
    0.5230    1.3480    0.0000 N    0  0  0  0  0  0  0  0  0  0  0  0
    0.9355    2.0625    0.0000 C    0  0  0  0  0  0  0  0  0  0  0  0
    0.5230    2.7770    0.0000 O    0  0  0  0  0  0  0  0  0  0  0  0
    1.7605    2.0625    0.0000 C    0  0  0  0  0  0  0  0  0  0  0  0
    2.1730    2.7770    0.0000 Cl   0  0  0  0  0  0  0  0  0  0  0  0
    2.1730    1.3480    0.0000 Cl   0  0  0  0  0  0  0  0  0  0  0  0
   -0.3020   -0.0809    0.0000 O    0  0  0  0  0  0  0  0  0  0  0  0
  1  2  1  0  0  0  0
  2  3  2  0  0  0  0
  2  4  2  0  0  0  0
  2  5  1  0  0  0  0
  5  6  2  0  0  0  0
  6  7  1  0  0  0  0
  7  8  2  0  0  0  0
  8  9  1  0  0  0  0
  9 10  2  0  0  0  0
  5 10  1  0  0  0  0
 11  8  1  0  0  0  0
 11 12  1  0  0  0  0
 12 13  1  0  0  0  0
 13 14  1  0  0  0  0
 12 15  1  1  0  0  0
 15 16  1  0  0  0  0
 16 17  2  0  0  0  0
 16 18  1  0  0  0  0
 18 19  1  0  0  0  0
 18 20  1  0  0  0  0
 11 21  1  6  0  0  0
M  END
> <Molar mass [g/mol] [MProp:scalar:double]>
356.21

> <Exact mass [Da] [MProp:scalar:double]>
355.0047992

> <Formula>
C12H15Cl2NO5S

> <Composition>
C (40.46%), H (4.24%), Cl (19.90%), N (3.93%), O (22.46%), S (9.00%)

> <Lipinski's rule of five [MProp:scalar:boolean]>
true

> <Atom count [MProp:scalar:integer]>
36

> <Heavy atom count [MProp:scalar:integer]>
21

> <Asymmetric atom count [MProp:scalar:integer]>
2

> <Rotatable bond count [MProp:scalar:integer]>
6

> <Ring count [MProp:scalar:integer]>
1

> <Aromatic ring count [MProp:scalar:integer]>
1

> <Hetero ring count [MProp:scalar:integer]>
0

> <FSP3 [MProp:scalar:double]>
0.42

> <Hydrogen bond donor count [MProp:scalar:integer]>
3

> <Hydrogen bond acceptor count [MProp:scalar:integer]>
5

> <Formal charge [MProp:scalar:integer]>
0

> <Topological polar surface area [A^2] [MProp:scalar:double]>
103.7

> <Polarizability [A^3] [MProp:scalar:double]>
31.87

> <Molar refractivity [cm^3/mol] [MProp:scalar:double]>
79.88

> <Van der Waals volume [A^3] [MProp:scalar:double]>
278.9

> <Minimum projection area [A^2] [MProp:scalar:double]>
50.18

> <Maximum projection area [A^2] [MProp:scalar:double]>
81.79

> <Minimum projection radius [A] [MProp:scalar:double]>
5.02

> <Maximum projection radius [A] [MProp:scalar:double]>
7.18

> <Van der Waals surface area [A^2] [MProp:scalar:double]>
441.11

> <Solvent accessible surface area [A^2] [MProp:scalar:double]>
517.29

> <Strongest acidic pKa [MProp:scalar:double]>
10.95

> <Strongest basic pKa [MProp:scalar:double]>
0.9

> <Isoelectric point [MProp:scalar:double]>
5.92

> <Intrinsic solubility [logS] [MProp:scalar:double]>
-2.27

> <Solubility category>
High

> <logP [MProp:scalar:double]>
-0.22

> <logD_PH0 [MProp:scalar:double]>
-1.17

> <logD_PH1 [MProp:scalar:double]>
-0.47

> <logD_PH2 [MProp:scalar:double]>
-0.25

> <logD_PH3 [MProp:scalar:double]>
-0.22

> <logD_PH4 [MProp:scalar:double]>
-0.22

> <logD_PH5 [MProp:scalar:double]>
-0.22

> <logD_PH6 [MProp:scalar:double]>
-0.22

> <logD_PH7 [MProp:scalar:double]>
-0.22

> <logD_PH8 [MProp:scalar:double]>
-0.22

> <logD_PH9 [MProp:scalar:double]>
-0.23

> <logD_PH10 [MProp:scalar:double]>
-0.26

> <logD_PH11 [MProp:scalar:double]>
-0.5

> <logD_PH12 [MProp:scalar:double]>
-0.96

> <logD_PH13 [MProp:scalar:double]>
-1.23

> <logD_PH14 [MProp:scalar:double]>
-1.74

> <HLB [MProp:scalar:double]>
14.41

> <IUPAC name>
2,2-dichloro-N-[(1R,2R)-1,3-dihydroxy-1-(4-methanesulfonylphenyl)propan-2-yl]acetamide

> <SMILES>
CS(=O)(=O)C1=CC=C(C=C1)[C@@H](O)[C@@H](CO)NC(=O)C(Cl)Cl

> <InChI>
InChI=1S/C12H15Cl2NO5S/c1-21(19,20)8-4-2-7(3-5-8)10(17)9(6-16)15-12(18)11(13)14/h2-5,9-11,16-17H,6H2,1H3,(H,15,18)/t9-,10-/m1/s1

> <InChIKey>
OTVAEFIXJLOWRX-NXEZZACHSA-N

> <Traditional name>
thiamphenicol

> <Common names>
(+)-thiamphenicol; armai (TN); thiamphenicol; thiocymetin (TN); 甲砜霉素

> <CAS Registry Numbers(R)>
15318-45-3

$$$$
